Pocket2Mol_40
     RDKit          3D

  0  0  0  0  0  0  0  0  0  0999 V3000
M  V30 BEGIN CTAB
M  V30 COUNTS 15 16 0 0 1
M  V30 BEGIN ATOM
M  V30 1 C 12.461158 8.646743 -1.983817 0
M  V30 2 O 12.247570 9.590176 -3.069413 0
M  V30 3 C 11.839327 8.856748 -4.139738 0
M  V30 4 C 11.775408 7.494105 -3.985038 0
M  V30 5 C 11.347401 6.660149 -5.030467 0
M  V30 6 C 11.481669 9.456905 -5.360892 0
M  V30 7 C 11.045962 8.642540 -6.430869 0
M  V30 8 S 12.208670 6.868996 -2.451434 0
M  V30 9 C 10.975414 7.238517 -6.264344 0
M  V30 10 H 13.471675 8.778254 -1.597660 0
M  V30 11 H 11.779066 8.897862 -1.171077 0
M  V30 12 H 11.296126 5.590230 -4.890720 0
M  V30 13 H 11.533328 10.529526 -5.477597 0
M  V30 14 H 10.764759 9.090233 -7.372317 0
M  V30 15 H 10.639751 6.611782 -7.078372 0
M  V30 END ATOM
M  V30 BEGIN BOND
M  V30 1 1 2 1
M  V30 2 1 3 2
M  V30 3 1 4 3
M  V30 4 2 5 4
M  V30 5 2 6 3
M  V30 6 1 7 6
M  V30 7 1 8 1
M  V30 8 1 8 4
M  V30 9 1 9 5
M  V30 10 2 9 7
M  V30 11 1 10 1
M  V30 12 1 11 1
M  V30 13 1 12 5
M  V30 14 1 13 6
M  V30 15 1 14 7
M  V30 16 1 15 9
M  V30 END BOND
M  V30 END CTAB
M  END
>  <i_epik_Tot_Q>  (1) 
0

>  <i_epik_Tot_abs_Q>  (1) 
0

>  <i_i_glide_confnum>  (1) 
1

>  <i_i_glide_lignum>  (1) 
45

>  <i_i_glide_posenum>  (1) 
122

>  <i_i_glide_rotatable_bonds>  (1) 
0

>  <i_lp_mmshare_version>  (1) 
72125

>  <i_m_source_file_index>  (1) 
41

>  <i_f3d_flags>  (1) 
0

>  <num_sample>  (1) 
50

>  <b_lp_Chiralities_Consistent>  (1) 
1

>  <r_epik_Charging_Adjusted_Penalty>  (1) 
0

>  <r_epik_Ionization_Penalty>  (1) 
0

>  <r_epik_Ionization_Penalty_Charging>  (1) 
0

>  <r_epik_Ionization_Penalty_Neutral>  (1) 
0

>  <r_epik_State_Penalty>  (1) 
-0

>  <r_glide_ring_energy>  (1) 
0

>  <r_i_docking_score>  (1) 
-6.3135293602296203

>  <r_i_glide_ecoul>  (1) 
-0.80346965066314124

>  <r_i_glide_eff_state_penalty>  (1) 
-0

>  <r_i_glide_einternal>  (1) 
0

>  <r_i_glide_emodel>  (1) 
-31.875687758048656

>  <r_i_glide_emodel_strain>  (1) 
0

>  <r_i_glide_energy>  (1) 
-23.109412302597875

>  <r_i_glide_erotb>  (1) 
0

>  <r_i_glide_esite>  (1) 
0

>  <r_i_glide_evdw>  (1) 
-22.305942651934732

>  <r_i_glide_gscore>  (1) 
-6.3135293602296203

>  <r_i_glide_gscore_strain>  (1) 
0

>  <r_i_glide_hbond>  (1) 
0

>  <r_i_glide_ligand_efficiency>  (1) 
-0.70150326224773563

>  <r_i_glide_ligand_efficiency_ln>  (1) 
-1.9746906129095763

>  <r_i_glide_ligand_efficiency_sa>  (1) 
-1.4591855876196524

>  <r_i_glide_lipo>  (1) 
-2.3025343877936737

>  <r_i_glide_metal>  (1) 
-0

>  <r_i_glide_rewards>  (1) 
-2.7751773922397387

>  <r_lp_Energy>  (1) 
5.8399909999999995

>  <r_lp_tautomer_probability>  (1) 
1

>  <s_epik_Chemistry_Notes>  (1) 
This compound contains an acetal/aminal-like group ( X-CH(R)-Y where X, Y are N, S, or O) that may be acid/base labile, releasing an aldehyde.

>  <s_epik_cmdline>  (1) 
J2VwaWtfcHl0aG9uJywgJy1waHQnLCAnMS4wJywgJy1waCcsICc3LjQnLCAnLXRuJywgJzgnLCAnLW1hJywgJzUwMCcsICctaW1hZScsICc8aW5maWxlLm1hZT4nLCAnLW9tYWUnLCAnPG91dGZpbGUubWFlPic=

>  <s_epik_input>  (1) 
TzFbQ0gyXVNjKGMxMilbY0hdW2NIXVtjSF1bY0hdMg==

>  <s_glide_docking_method>  (1) 
confgen

>  <s_i_glide_gridfile>  (1) 
gpcr_drd2_6luq_protein_autoprepared_prepared

>  <s_lp_Force_Field>  (1) 
S-OPLS

>  <s_lp_Variant>  (1) 
Pocket2Mol_40-1

>  <s_m_source_file>  (1) 
generated_generic_title2_ligand_Pocket2Mol_2026-06-23_prepared.sdf

>  <GenAI_Model>  (1) 
Pocket2Mol

>  <Protein>  (1) 
generic_title2

$$$$
Pocket2Mol_36
     RDKit          3D

  0  0  0  0  0  0  0  0  0  0999 V3000
M  V30 BEGIN CTAB
M  V30 COUNTS 17 18 0 0 1
M  V30 BEGIN ATOM
M  V30 1 C 12.575449 8.389893 -2.135876 0
M  V30 2 O 12.440720 9.382155 -3.062703 0
M  V30 3 C 11.947659 8.767146 -4.174821 0
M  V30 4 C 11.775414 7.445445 -3.985020 0
M  V30 5 C 11.245826 6.508293 -5.010735 0
M  V30 6 C 11.681108 9.597454 -5.358202 0
M  V30 7 C 12.182590 7.189220 -2.650705 0
M  V30 8 C 11.057227 8.667968 -6.424621 0
M  V30 9 C 10.866858 7.318893 -6.273386 0
M  V30 10 H 12.958648 8.706308 -1.177117 0
M  V30 11 H 10.368117 5.990228 -4.623624 0
M  V30 12 H 11.998415 5.761975 -5.262418 0
M  V30 13 H 12.601525 10.037497 -5.741864 0
M  V30 14 H 10.988431 10.403510 -5.116149 0
M  V30 15 H 12.185602 6.242834 -2.129626 0
M  V30 16 H 10.757371 9.139091 -7.348621 0
M  V30 17 H 10.420841 6.757355 -7.081692 0
M  V30 END ATOM
M  V30 BEGIN BOND
M  V30 1 1 2 1
M  V30 2 1 3 2
M  V30 3 2 4 3
M  V30 4 1 5 4
M  V30 5 1 6 3
M  V30 6 2 7 1
M  V30 7 1 7 4
M  V30 8 1 8 6
M  V30 9 1 9 5
M  V30 10 2 9 8
M  V30 11 1 10 1
M  V30 12 1 11 5
M  V30 13 1 12 5
M  V30 14 1 13 6
M  V30 15 1 14 6
M  V30 16 1 15 7
M  V30 17 1 16 8
M  V30 18 1 17 9
M  V30 END BOND
M  V30 END CTAB
M  END
>  <i_epik_Tot_Q>  (1) 
0

>  <i_epik_Tot_abs_Q>  (1) 
0

>  <i_i_glide_confnum>  (1) 
1

>  <i_i_glide_lignum>  (1) 
41

>  <i_i_glide_posenum>  (1) 
112

>  <i_i_glide_rotatable_bonds>  (1) 
0

>  <i_lp_mmshare_version>  (1) 
72125

>  <i_m_source_file_index>  (1) 
37

>  <i_f3d_flags>  (1) 
0

>  <num_sample>  (1) 
50

>  <b_lp_Chiralities_Consistent>  (1) 
1

>  <r_epik_Charging_Adjusted_Penalty>  (1) 
0

>  <r_epik_Ionization_Penalty>  (1) 
0

>  <r_epik_Ionization_Penalty_Charging>  (1) 
0

>  <r_epik_Ionization_Penalty_Neutral>  (1) 
0

>  <r_epik_State_Penalty>  (1) 
-0

>  <r_glide_ring_energy>  (1) 
0

>  <r_i_docking_score>  (1) 
-6.1890876180215617

>  <r_i_glide_ecoul>  (1) 
-1.0320213951673674

>  <r_i_glide_eff_state_penalty>  (1) 
-0

>  <r_i_glide_einternal>  (1) 
0

>  <r_i_glide_emodel>  (1) 
-30.274069673145668

>  <r_i_glide_emodel_strain>  (1) 
9.5552721290914633e-10

>  <r_i_glide_energy>  (1) 
-22.037076308594791

>  <r_i_glide_erotb>  (1) 
0

>  <r_i_glide_esite>  (1) 
0

>  <r_i_glide_evdw>  (1) 
-21.005054913427426

>  <r_i_glide_gscore>  (1) 
-6.1890876180215617

>  <r_i_glide_gscore_strain>  (1) 
0

>  <r_i_glide_hbond>  (1) 
0

>  <r_i_glide_ligand_efficiency>  (1) 
-0.68767640200239577

>  <r_i_glide_ligand_efficiency_ln>  (1) 
-1.9357688108284294

>  <r_i_glide_ligand_efficiency_sa>  (1) 
-1.4304245592997216

>  <r_i_glide_lipo>  (1) 
-2.3090316630750856

>  <r_i_glide_metal>  (1) 
-0

>  <r_i_glide_rewards>  (1) 
-2.6749999999999998

>  <r_lp_Energy>  (1) 
4.5932930000000001

>  <r_lp_tautomer_probability>  (1) 
1

>  <s_epik_cmdline>  (1) 
J2VwaWtfcHl0aG9uJywgJy1waHQnLCAnMS4wJywgJy1waCcsICc3LjQnLCAnLXRuJywgJzgnLCAnLW1hJywgJzUwMCcsICctaW1hZScsICc8aW5maWxlLm1hZT4nLCAnLW9tYWUnLCAnPG91dGZpbGUubWFlPic=

>  <s_epik_input>  (1) 
bzFbY0hdW2NIXWMoYzEyKVtDSDJdW0NIXT1bQ0hdW0NIMl0y

>  <s_glide_docking_method>  (1) 
confgen

>  <s_i_glide_gridfile>  (1) 
gpcr_drd2_6luq_protein_autoprepared_prepared

>  <s_lp_Force_Field>  (1) 
S-OPLS

>  <s_lp_Variant>  (1) 
Pocket2Mol_36-1

>  <s_m_source_file>  (1) 
generated_generic_title2_ligand_Pocket2Mol_2026-06-23_prepared.sdf

>  <GenAI_Model>  (1) 
Pocket2Mol

>  <Protein>  (1) 
generic_title2

$$$$
Pocket2Mol_40
     RDKit          3D

  0  0  0  0  0  0  0  0  0  0999 V3000
M  V30 BEGIN CTAB
M  V30 COUNTS 15 16 0 0 1
M  V30 BEGIN ATOM
M  V30 1 C 10.880695 8.697697 -6.698313 0
M  V30 2 O 10.801802 7.401667 -6.046745 0
M  V30 3 C 11.375410 7.556061 -4.819703 0
M  V30 4 C 11.900157 8.783211 -4.514810 0
M  V30 5 C 12.510830 9.027370 -3.274394 0
M  V30 6 C 11.424917 6.509413 -3.890070 0
M  V30 7 C 12.028486 6.724739 -2.630365 0
M  V30 8 S 11.775415 9.990177 -5.714414 0
M  V30 9 C 12.575407 7.990221 -2.322689 0
M  V30 10 H 11.373512 8.580717 -7.663648 0
M  V30 11 H 9.867768 9.049089 -6.898586 0
M  V30 12 H 12.924104 9.990227 -3.050518 0
M  V30 13 H 11.001086 5.556977 -4.134524 0
M  V30 14 H 12.070330 5.924479 -1.905470 0
M  V30 15 H 13.038404 8.163241 -1.362447 0
M  V30 END ATOM
M  V30 BEGIN BOND
M  V30 1 1 2 1
M  V30 2 1 3 2
M  V30 3 1 4 3
M  V30 4 2 5 4
M  V30 5 2 6 3
M  V30 6 1 7 6
M  V30 7 1 8 1
M  V30 8 1 8 4
M  V30 9 1 9 5
M  V30 10 2 9 7
M  V30 11 1 10 1
M  V30 12 1 11 1
M  V30 13 1 12 5
M  V30 14 1 13 6
M  V30 15 1 14 7
M  V30 16 1 15 9
M  V30 END BOND
M  V30 END CTAB
M  END
>  <i_epik_Tot_Q>  (1) 
0

>  <i_epik_Tot_abs_Q>  (1) 
0

>  <i_i_glide_confnum>  (1) 
1

>  <i_i_glide_lignum>  (1) 
45

>  <i_i_glide_posenum>  (1) 
21

>  <i_i_glide_rotatable_bonds>  (1) 
0

>  <i_lp_mmshare_version>  (1) 
72125

>  <i_m_source_file_index>  (1) 
41

>  <i_f3d_flags>  (1) 
0

>  <num_sample>  (1) 
50

>  <b_lp_Chiralities_Consistent>  (1) 
1

>  <r_epik_Charging_Adjusted_Penalty>  (1) 
0

>  <r_epik_Ionization_Penalty>  (1) 
0

>  <r_epik_Ionization_Penalty_Charging>  (1) 
0

>  <r_epik_Ionization_Penalty_Neutral>  (1) 
0

>  <r_epik_State_Penalty>  (1) 
-0

>  <r_glide_ring_energy>  (1) 
0

>  <r_i_docking_score>  (1) 
-6.1768411978416946

>  <r_i_glide_ecoul>  (1) 
-0.75640925694596683

>  <r_i_glide_eff_state_penalty>  (1) 
-0

>  <r_i_glide_einternal>  (1) 
0

>  <r_i_glide_emodel>  (1) 
-30.109232896203984

>  <r_i_glide_emodel_strain>  (1) 
0

>  <r_i_glide_energy>  (1) 
-21.532747653900856

>  <r_i_glide_erotb>  (1) 
0

>  <r_i_glide_esite>  (1) 
0

>  <r_i_glide_evdw>  (1) 
-20.776338396954888

>  <r_i_glide_gscore>  (1) 
-6.1768411978416946

>  <r_i_glide_gscore_strain>  (1) 
0

>  <r_i_glide_hbond>  (1) 
0

>  <r_i_glide_ligand_efficiency>  (1) 
-0.68631568864907722

>  <r_i_glide_ligand_efficiency_ln>  (1) 
-1.9319384824033707

>  <r_i_glide_ligand_efficiency_sa>  (1) 
-1.4275941614656731

>  <r_i_glide_lipo>  (1) 
-2.2478959143546948

>  <r_i_glide_metal>  (1) 
-0

>  <r_i_glide_rewards>  (1) 
-2.7766669750973598

>  <r_lp_Energy>  (1) 
5.8399909999999995

>  <r_lp_tautomer_probability>  (1) 
1

>  <s_epik_Chemistry_Notes>  (1) 
This compound contains an acetal/aminal-like group ( X-CH(R)-Y where X, Y are N, S, or O) that may be acid/base labile, releasing an aldehyde.

>  <s_epik_cmdline>  (1) 
J2VwaWtfcHl0aG9uJywgJy1waHQnLCAnMS4wJywgJy1waCcsICc3LjQnLCAnLXRuJywgJzgnLCAnLW1hJywgJzUwMCcsICctaW1hZScsICc8aW5maWxlLm1hZT4nLCAnLW9tYWUnLCAnPG91dGZpbGUubWFlPic=

>  <s_epik_input>  (1) 
TzFbQ0gyXVNjKGMxMilbY0hdW2NIXVtjSF1bY0hdMg==

>  <s_glide_docking_method>  (1) 
confgen

>  <s_i_glide_gridfile>  (1) 
gpcr_drd2_6luq_protein_autoprepared_prepared

>  <s_lp_Force_Field>  (1) 
S-OPLS

>  <s_lp_Variant>  (1) 
Pocket2Mol_40-1

>  <s_m_source_file>  (1) 
generated_generic_title2_ligand_Pocket2Mol_2026-06-23_prepared.sdf

>  <GenAI_Model>  (1) 
Pocket2Mol

>  <Protein>  (1) 
generic_title2

$$$$
Pocket2Mol_37
     RDKit          3D

  0  0  0  0  0  0  0  0  0  0999 V3000
M  V30 BEGIN CTAB
M  V30 COUNTS 15 16 0 0 1
M  V30 BEGIN ATOM
M  V30 1 C 12.463541 8.427739 -2.083383 0
M  V30 2 O 12.192062 9.442089 -2.982398 0
M  V30 3 C 11.775411 8.848281 -4.147807 0
M  V30 4 C 11.775410 7.453466 -3.985025 0
M  V30 5 C 11.361735 6.679552 -5.098994 0
M  V30 6 C 11.394975 9.492600 -5.327772 0
M  V30 7 C 12.219567 7.189726 -2.650602 0
M  V30 8 C 10.987585 8.716150 -6.422777 0
M  V30 9 C 10.970346 7.307770 -6.310324 0
M  V30 10 H 12.809238 8.742040 -1.109359 0
M  V30 11 H 11.342396 5.602511 -5.024362 0
M  V30 12 H 11.412473 10.570117 -5.394290 0
M  V30 13 H 12.336226 6.218288 -2.191356 0
M  V30 14 H 10.687605 9.190225 -7.345421 0
M  V30 15 H 10.655308 6.705449 -7.150821 0
M  V30 END ATOM
M  V30 BEGIN BOND
M  V30 1 1 2 1
M  V30 2 1 3 2
M  V30 3 1 4 3
M  V30 4 2 5 4
M  V30 5 2 6 3
M  V30 6 2 7 1
M  V30 7 1 7 4
M  V30 8 1 8 6
M  V30 9 1 9 5
M  V30 10 2 9 8
M  V30 11 1 10 1
M  V30 12 1 11 5
M  V30 13 1 12 6
M  V30 14 1 13 7
M  V30 15 1 14 8
M  V30 16 1 15 9
M  V30 END BOND
M  V30 END CTAB
M  END
>  <i_epik_Tot_Q>  (1) 
0

>  <i_epik_Tot_abs_Q>  (1) 
0

>  <i_i_glide_confnum>  (1) 
1

>  <i_i_glide_lignum>  (1) 
42

>  <i_i_glide_posenum>  (1) 
92

>  <i_i_glide_rotatable_bonds>  (1) 
0

>  <i_lp_mmshare_version>  (1) 
72125

>  <i_m_source_file_index>  (1) 
38

>  <i_f3d_flags>  (1) 
0

>  <num_sample>  (1) 
50

>  <b_lp_Chiralities_Consistent>  (1) 
1

>  <r_epik_Charging_Adjusted_Penalty>  (1) 
0

>  <r_epik_Ionization_Penalty>  (1) 
0

>  <r_epik_Ionization_Penalty_Charging>  (1) 
0

>  <r_epik_Ionization_Penalty_Neutral>  (1) 
0

>  <r_epik_State_Penalty>  (1) 
-0

>  <r_glide_ring_energy>  (1) 
0

>  <r_i_docking_score>  (1) 
-6.1764088700731268

>  <r_i_glide_ecoul>  (1) 
-0.98589339691462885

>  <r_i_glide_eff_state_penalty>  (1) 
-0

>  <r_i_glide_einternal>  (1) 
0

>  <r_i_glide_emodel>  (1) 
-28.825614965913235

>  <r_i_glide_emodel_strain>  (1) 
0

>  <r_i_glide_energy>  (1) 
-20.906723606401417

>  <r_i_glide_erotb>  (1) 
0

>  <r_i_glide_esite>  (1) 
0

>  <r_i_glide_evdw>  (1) 
-19.920830209486788

>  <r_i_glide_gscore>  (1) 
-6.1764088700731268

>  <r_i_glide_gscore_strain>  (1) 
0

>  <r_i_glide_hbond>  (1) 
0

>  <r_i_glide_ligand_efficiency>  (1) 
-0.68626765223034747

>  <r_i_glide_ligand_efficiency_ln>  (1) 
-1.9318032626969941

>  <r_i_glide_ligand_efficiency_sa>  (1) 
-1.427494241688156

>  <r_i_glide_lipo>  (1) 
-2.2741500167282598

>  <r_i_glide_metal>  (1) 
-0

>  <r_i_glide_rewards>  (1) 
-2.7583333333333333

>  <r_lp_Energy>  (1) 
12.927653999999999

>  <r_lp_tautomer_probability>  (1) 
1

>  <s_epik_cmdline>  (1) 
J2VwaWtfcHl0aG9uJywgJy1waHQnLCAnMS4wJywgJy1waCcsICc3LjQnLCAnLXRuJywgJzgnLCAnLW1hJywgJzUwMCcsICctaW1hZScsICc8aW5maWxlLm1hZT4nLCAnLW9tYWUnLCAnPG91dGZpbGUubWFlPic=

>  <s_epik_input>  (1) 
bzFbY0hdW2NIXWMoYzEyKVtjSF1bY0hdW2NIXVtjSF0y

>  <s_glide_docking_method>  (1) 
confgen

>  <s_i_glide_gridfile>  (1) 
gpcr_drd2_6luq_protein_autoprepared_prepared

>  <s_lp_Force_Field>  (1) 
S-OPLS

>  <s_lp_Variant>  (1) 
Pocket2Mol_37-1

>  <s_m_source_file>  (1) 
generated_generic_title2_ligand_Pocket2Mol_2026-06-23_prepared.sdf

>  <GenAI_Model>  (1) 
Pocket2Mol

>  <Protein>  (1) 
generic_title2

$$$$
Pocket2Mol_31
     RDKit          3D

  0  0  0  0  0  0  0  0  0  0999 V3000
M  V30 BEGIN CTAB
M  V30 COUNTS 17 18 0 0 1
M  V30 BEGIN ATOM
M  V30 1 C 12.431195 8.502446 -2.045399 0
M  V30 2 O 12.175418 9.590221 -3.012829 0
M  V30 3 C 11.782523 8.905207 -4.107049 0
M  V30 4 C 11.775411 7.559927 -3.985019 0
M  V30 5 C 11.375409 6.728809 -5.044035 0
M  V30 6 C 12.195711 7.053795 -2.675716 0
M  V30 7 C 11.392481 9.531042 -5.303832 0
M  V30 8 C 10.984224 8.729929 -6.394699 0
M  V30 9 C 10.975402 7.318872 -6.263648 0
M  V30 10 H 13.450912 8.596910 -1.673731 0
M  V30 11 H 11.775495 8.646948 -1.186060 0
M  V30 12 H 11.371232 5.655113 -4.927390 0
M  V30 13 H 11.403180 6.490807 -2.180646 0
M  V30 14 H 13.108251 6.463796 -2.743272 0
M  V30 15 H 11.400873 10.607768 -5.387453 0
M  V30 16 H 10.678475 9.190226 -7.322108 0
M  V30 17 H 10.662533 6.697879 -7.090845 0
M  V30 END ATOM
M  V30 BEGIN BOND
M  V30 1 1 2 1
M  V30 2 1 3 2
M  V30 3 1 4 3
M  V30 4 2 5 4
M  V30 5 1 6 1
M  V30 6 1 6 4
M  V30 7 2 7 3
M  V30 8 1 8 7
M  V30 9 1 9 5
M  V30 10 2 9 8
M  V30 11 1 10 1
M  V30 12 1 11 1
M  V30 13 1 12 5
M  V30 14 1 13 6
M  V30 15 1 14 6
M  V30 16 1 15 7
M  V30 17 1 16 8
M  V30 18 1 17 9
M  V30 END BOND
M  V30 END CTAB
M  END
>  <i_epik_Tot_Q>  (1) 
0

>  <i_epik_Tot_abs_Q>  (1) 
0

>  <i_i_glide_confnum>  (1) 
1

>  <i_i_glide_lignum>  (1) 
35

>  <i_i_glide_posenum>  (1) 
30

>  <i_i_glide_rotatable_bonds>  (1) 
0

>  <i_lp_mmshare_version>  (1) 
72125

>  <i_m_source_file_index>  (1) 
32

>  <i_f3d_flags>  (1) 
0

>  <num_sample>  (1) 
50

>  <b_lp_Chiralities_Consistent>  (1) 
1

>  <r_epik_Charging_Adjusted_Penalty>  (1) 
0

>  <r_epik_Ionization_Penalty>  (1) 
0

>  <r_epik_Ionization_Penalty_Charging>  (1) 
0

>  <r_epik_Ionization_Penalty_Neutral>  (1) 
0

>  <r_epik_State_Penalty>  (1) 
-0

>  <r_glide_ring_energy>  (1) 
0

>  <r_i_docking_score>  (1) 
-6.1671714859356523

>  <r_i_glide_ecoul>  (1) 
-0.82448350867226694

>  <r_i_glide_eff_state_penalty>  (1) 
-0

>  <r_i_glide_einternal>  (1) 
0

>  <r_i_glide_emodel>  (1) 
-29.179067428647542

>  <r_i_glide_emodel_strain>  (1) 
0

>  <r_i_glide_energy>  (1) 
-21.215099759926613

>  <r_i_glide_erotb>  (1) 
0

>  <r_i_glide_esite>  (1) 
0

>  <r_i_glide_evdw>  (1) 
-20.390616251254347

>  <r_i_glide_gscore>  (1) 
-6.1671714859356523

>  <r_i_glide_gscore_strain>  (1) 
0

>  <r_i_glide_hbond>  (1) 
0

>  <r_i_glide_ligand_efficiency>  (1) 
-0.68524127621507247

>  <r_i_glide_ligand_efficiency_ln>  (1) 
-1.9289140743043631

>  <r_i_glide_ligand_efficiency_sa>  (1) 
-1.425359293542414

>  <r_i_glide_lipo>  (1) 
-2.2656348137387616

>  <r_i_glide_metal>  (1) 
-0

>  <r_i_glide_rewards>  (1) 
-2.7583333333333333

>  <r_lp_Energy>  (1) 
11.954839999999999

>  <r_lp_tautomer_probability>  (1) 
1

>  <s_epik_cmdline>  (1) 
J2VwaWtfcHl0aG9uJywgJy1waHQnLCAnMS4wJywgJy1waCcsICc3LjQnLCAnLXRuJywgJzgnLCAnLW1hJywgJzUwMCcsICctaW1hZScsICc8aW5maWxlLm1hZT4nLCAnLW9tYWUnLCAnPG91dGZpbGUubWFlPic=

>  <s_epik_input>  (1) 
TzFbQ0gyXVtDSDJdYyhjMTIpW2NIXVtjSF1bY0hdW2NIXTI=

>  <s_glide_docking_method>  (1) 
confgen

>  <s_i_glide_gridfile>  (1) 
gpcr_drd2_6luq_protein_autoprepared_prepared

>  <s_lp_Force_Field>  (1) 
S-OPLS

>  <s_lp_Variant>  (1) 
Pocket2Mol_31-1

>  <s_m_source_file>  (1) 
generated_generic_title2_ligand_Pocket2Mol_2026-06-23_prepared.sdf

>  <GenAI_Model>  (1) 
Pocket2Mol

>  <Protein>  (1) 
generic_title2

$$$$
Pocket2Mol_36
     RDKit          3D

  0  0  0  0  0  0  0  0  0  0999 V3000
M  V30 BEGIN CTAB
M  V30 COUNTS 17 18 0 0 1
M  V30 BEGIN ATOM
M  V30 1 C 10.996946 8.790227 -6.571503 0
M  V30 2 O 10.881866 7.529650 -6.067193 0
M  V30 3 C 11.375410 7.608881 -4.797291 0
M  V30 4 C 11.789652 8.848921 -4.492174 0
M  V30 5 C 12.375560 9.240120 -3.185023 0
M  V30 6 C 11.375410 6.390227 -3.987667 0
M  V30 7 C 11.546402 9.633486 -5.648669 0
M  V30 8 C 12.014009 6.748353 -2.626336 0
M  V30 9 C 12.451591 7.995910 -2.275824 0
M  V30 10 H 10.646365 8.913015 -7.585798 0
M  V30 11 H 11.760042 10.002006 -2.708331 0
M  V30 12 H 13.375410 9.641886 -3.337213 0
M  V30 13 H 11.946293 5.604949 -4.480065 0
M  V30 14 H 10.360796 6.019768 -3.840350 0
M  V30 15 H 11.747693 10.685220 -5.790035 0
M  V30 16 H 12.109159 5.938123 -1.918048 0
M  V30 17 H 12.884277 8.147576 -1.297790 0
M  V30 END ATOM
M  V30 BEGIN BOND
M  V30 1 1 2 1
M  V30 2 1 3 2
M  V30 3 2 4 3
M  V30 4 1 5 4
M  V30 5 1 6 3
M  V30 6 2 7 1
M  V30 7 1 7 4
M  V30 8 1 8 6
M  V30 9 1 9 5
M  V30 10 2 9 8
M  V30 11 1 10 1
M  V30 12 1 11 5
M  V30 13 1 12 5
M  V30 14 1 13 6
M  V30 15 1 14 6
M  V30 16 1 15 7
M  V30 17 1 16 8
M  V30 18 1 17 9
M  V30 END BOND
M  V30 END CTAB
M  END
>  <i_epik_Tot_Q>  (1) 
0

>  <i_epik_Tot_abs_Q>  (1) 
0

>  <i_i_glide_confnum>  (1) 
1

>  <i_i_glide_lignum>  (1) 
41

>  <i_i_glide_posenum>  (1) 
310

>  <i_i_glide_rotatable_bonds>  (1) 
0

>  <i_lp_mmshare_version>  (1) 
72125

>  <i_m_source_file_index>  (1) 
37

>  <i_f3d_flags>  (1) 
0

>  <num_sample>  (1) 
50

>  <b_lp_Chiralities_Consistent>  (1) 
1

>  <r_epik_Charging_Adjusted_Penalty>  (1) 
0

>  <r_epik_Ionization_Penalty>  (1) 
0

>  <r_epik_Ionization_Penalty_Charging>  (1) 
0

>  <r_epik_Ionization_Penalty_Neutral>  (1) 
0

>  <r_epik_State_Penalty>  (1) 
-0

>  <r_glide_ring_energy>  (1) 
0

>  <r_i_docking_score>  (1) 
-6.096705987896673

>  <r_i_glide_ecoul>  (1) 
-0.7589554780739296

>  <r_i_glide_eff_state_penalty>  (1) 
-0

>  <r_i_glide_einternal>  (1) 
0

>  <r_i_glide_emodel>  (1) 
-29.341064808064274

>  <r_i_glide_emodel_strain>  (1) 
0

>  <r_i_glide_energy>  (1) 
-21.227021208564999

>  <r_i_glide_erotb>  (1) 
0

>  <r_i_glide_esite>  (1) 
0

>  <r_i_glide_evdw>  (1) 
-20.46806573049107

>  <r_i_glide_gscore>  (1) 
-6.096705987896673

>  <r_i_glide_gscore_strain>  (1) 
0

>  <r_i_glide_hbond>  (1) 
0

>  <r_i_glide_ligand_efficiency>  (1) 
-0.67741177643296369

>  <r_i_glide_ligand_efficiency_ln>  (1) 
-1.9068744908048243

>  <r_i_glide_ligand_efficiency_sa>  (1) 
-1.409073277703061

>  <r_i_glide_lipo>  (1) 
-2.2177081744160159

>  <r_i_glide_metal>  (1) 
-0

>  <r_i_glide_rewards>  (1) 
-2.7417512052450146

>  <r_lp_Energy>  (1) 
4.5932930000000001

>  <r_lp_tautomer_probability>  (1) 
1

>  <s_epik_cmdline>  (1) 
J2VwaWtfcHl0aG9uJywgJy1waHQnLCAnMS4wJywgJy1waCcsICc3LjQnLCAnLXRuJywgJzgnLCAnLW1hJywgJzUwMCcsICctaW1hZScsICc8aW5maWxlLm1hZT4nLCAnLW9tYWUnLCAnPG91dGZpbGUubWFlPic=

>  <s_epik_input>  (1) 
bzFbY0hdW2NIXWMoYzEyKVtDSDJdW0NIXT1bQ0hdW0NIMl0y

>  <s_glide_docking_method>  (1) 
confgen

>  <s_i_glide_gridfile>  (1) 
gpcr_drd2_6luq_protein_autoprepared_prepared

>  <s_lp_Force_Field>  (1) 
S-OPLS

>  <s_lp_Variant>  (1) 
Pocket2Mol_36-1

>  <s_m_source_file>  (1) 
generated_generic_title2_ligand_Pocket2Mol_2026-06-23_prepared.sdf

>  <GenAI_Model>  (1) 
Pocket2Mol

>  <Protein>  (1) 
generic_title2

$$$$
Pocket2Mol_31
     RDKit          3D

  0  0  0  0  0  0  0  0  0  0999 V3000
M  V30 BEGIN CTAB
M  V30 COUNTS 17 18 0 0 1
M  V30 BEGIN ATOM
M  V30 1 C 11.111065 9.077115 -6.477483 0
M  V30 2 O 11.799493 9.791489 -5.381209 0
M  V30 3 C 11.889937 8.824376 -4.443077 0
M  V30 4 C 11.375410 7.623899 -4.785025 0
M  V30 5 C 11.402273 6.536240 -3.900977 0
M  V30 6 C 10.796368 7.554554 -6.127252 0
M  V30 7 C 12.479296 9.030672 -3.185023 0
M  V30 8 C 12.528017 7.961382 -2.264946 0
M  V30 9 C 11.985020 6.704586 -2.624474 0
M  V30 10 H 10.175417 9.590227 -6.691160 0
M  V30 11 H 11.718479 9.140998 -7.380934 0
M  V30 12 H 10.981573 5.590227 -4.190905 0
M  V30 13 H 11.329381 6.847330 -6.763489 0
M  V30 14 H 9.728872 7.330887 -6.100057 0
M  V30 15 H 12.888505 9.990227 -2.924648 0
M  V30 16 H 12.975410 8.102482 -1.292305 0
M  V30 17 H 12.014673 5.879381 -1.927736 0
M  V30 END ATOM
M  V30 BEGIN BOND
M  V30 1 1 2 1
M  V30 2 1 3 2
M  V30 3 1 4 3
M  V30 4 2 5 4
M  V30 5 1 6 1
M  V30 6 1 6 4
M  V30 7 2 7 3
M  V30 8 1 8 7
M  V30 9 1 9 5
M  V30 10 2 9 8
M  V30 11 1 10 1
M  V30 12 1 11 1
M  V30 13 1 12 5
M  V30 14 1 13 6
M  V30 15 1 14 6
M  V30 16 1 15 7
M  V30 17 1 16 8
M  V30 18 1 17 9
M  V30 END BOND
M  V30 END CTAB
M  END
>  <i_epik_Tot_Q>  (1) 
0

>  <i_epik_Tot_abs_Q>  (1) 
0

>  <i_i_glide_confnum>  (1) 
1

>  <i_i_glide_lignum>  (1) 
35

>  <i_i_glide_posenum>  (1) 
297

>  <i_i_glide_rotatable_bonds>  (1) 
0

>  <i_lp_mmshare_version>  (1) 
72125

>  <i_m_source_file_index>  (1) 
32

>  <i_f3d_flags>  (1) 
0

>  <num_sample>  (1) 
50

>  <b_lp_Chiralities_Consistent>  (1) 
1

>  <r_epik_Charging_Adjusted_Penalty>  (1) 
0

>  <r_epik_Ionization_Penalty>  (1) 
0

>  <r_epik_Ionization_Penalty_Charging>  (1) 
0

>  <r_epik_Ionization_Penalty_Neutral>  (1) 
0

>  <r_epik_State_Penalty>  (1) 
-0

>  <r_glide_ring_energy>  (1) 
0

>  <r_i_docking_score>  (1) 
-6.0561202402154786

>  <r_i_glide_ecoul>  (1) 
-1.5946471631240555

>  <r_i_glide_eff_state_penalty>  (1) 
-0

>  <r_i_glide_einternal>  (1) 
0

>  <r_i_glide_emodel>  (1) 
-27.843809100115028

>  <r_i_glide_emodel_strain>  (1) 
0

>  <r_i_glide_energy>  (1) 
-20.023247291358192

>  <r_i_glide_erotb>  (1) 
0

>  <r_i_glide_esite>  (1) 
0

>  <r_i_glide_evdw>  (1) 
-18.428600128234137

>  <r_i_glide_gscore>  (1) 
-6.0561202402154786

>  <r_i_glide_gscore_strain>  (1) 
0

>  <r_i_glide_hbond>  (1) 
0

>  <r_i_glide_ligand_efficiency>  (1) 
-0.6729022489128309

>  <r_i_glide_ligand_efficiency_ln>  (1) 
-1.8941804348511417

>  <r_i_glide_ligand_efficiency_sa>  (1) 
-1.3996930824588256

>  <r_i_glide_lipo>  (1) 
-2.1871598260018299

>  <r_i_glide_metal>  (1) 
-0

>  <r_i_glide_rewards>  (1) 
-2.7083333333333335

>  <r_lp_Energy>  (1) 
11.954839999999999

>  <r_lp_tautomer_probability>  (1) 
1

>  <s_epik_cmdline>  (1) 
J2VwaWtfcHl0aG9uJywgJy1waHQnLCAnMS4wJywgJy1waCcsICc3LjQnLCAnLXRuJywgJzgnLCAnLW1hJywgJzUwMCcsICctaW1hZScsICc8aW5maWxlLm1hZT4nLCAnLW9tYWUnLCAnPG91dGZpbGUubWFlPic=

>  <s_epik_input>  (1) 
TzFbQ0gyXVtDSDJdYyhjMTIpW2NIXVtjSF1bY0hdW2NIXTI=

>  <s_glide_docking_method>  (1) 
confgen

>  <s_i_glide_gridfile>  (1) 
gpcr_drd2_6luq_protein_autoprepared_prepared

>  <s_lp_Force_Field>  (1) 
S-OPLS

>  <s_lp_Variant>  (1) 
Pocket2Mol_31-1

>  <s_m_source_file>  (1) 
generated_generic_title2_ligand_Pocket2Mol_2026-06-23_prepared.sdf

>  <GenAI_Model>  (1) 
Pocket2Mol

>  <Protein>  (1) 
generic_title2

$$$$
Pocket2Mol_36
     RDKit          3D

  0  0  0  0  0  0  0  0  0  0999 V3000
M  V30 BEGIN CTAB
M  V30 COUNTS 17 18 0 0 1
M  V30 BEGIN ATOM
M  V30 1 C 10.129915 8.181126 -7.090966 0
M  V30 2 O 10.772125 9.190198 -6.431395 0
M  V30 3 C 11.271552 8.613898 -5.299664 0
M  V30 4 C 10.975410 7.303525 -5.227912 0
M  V30 5 C 11.375415 6.408720 -4.111473 0
M  V30 6 C 12.014327 9.468687 -4.365973 0
M  V30 7 C 10.228927 7.010211 -6.398196 0
M  V30 8 C 12.454267 8.571539 -3.185025 0
M  V30 9 C 12.175416 7.233970 -3.073434 0
M  V30 10 H 9.660591 8.463099 -8.023187 0
M  V30 11 H 11.979593 5.590275 -4.496769 0
M  V30 12 H 10.486033 5.990228 -3.641693 0
M  V30 13 H 11.375456 10.274661 -4.003075 0
M  V30 14 H 12.886983 9.905683 -4.850997 0
M  V30 15 H 9.809692 6.059901 -6.695277 0
M  V30 16 H 13.020611 9.058323 -2.403705 0
M  V30 17 H 12.527713 6.693392 -2.206940 0
M  V30 END ATOM
M  V30 BEGIN BOND
M  V30 1 1 2 1
M  V30 2 1 3 2
M  V30 3 2 4 3
M  V30 4 1 5 4
M  V30 5 1 6 3
M  V30 6 2 7 1
M  V30 7 1 7 4
M  V30 8 1 8 6
M  V30 9 1 9 5
M  V30 10 2 9 8
M  V30 11 1 10 1
M  V30 12 1 11 5
M  V30 13 1 12 5
M  V30 14 1 13 6
M  V30 15 1 14 6
M  V30 16 1 15 7
M  V30 17 1 16 8
M  V30 18 1 17 9
M  V30 END BOND
M  V30 END CTAB
M  END
>  <i_epik_Tot_Q>  (1) 
0

>  <i_epik_Tot_abs_Q>  (1) 
0

>  <i_i_glide_confnum>  (1) 
1

>  <i_i_glide_lignum>  (1) 
41

>  <i_i_glide_posenum>  (1) 
309

>  <i_i_glide_rotatable_bonds>  (1) 
0

>  <i_lp_mmshare_version>  (1) 
72125

>  <i_m_source_file_index>  (1) 
37

>  <i_f3d_flags>  (1) 
0

>  <num_sample>  (1) 
50

>  <b_lp_Chiralities_Consistent>  (1) 
1

>  <r_epik_Charging_Adjusted_Penalty>  (1) 
0

>  <r_epik_Ionization_Penalty>  (1) 
0

>  <r_epik_Ionization_Penalty_Charging>  (1) 
0

>  <r_epik_Ionization_Penalty_Neutral>  (1) 
0

>  <r_epik_State_Penalty>  (1) 
-0

>  <r_glide_ring_energy>  (1) 
0

>  <r_i_docking_score>  (1) 
-6.0463984261905628

>  <r_i_glide_ecoul>  (1) 
-1.0271609481692696

>  <r_i_glide_eff_state_penalty>  (1) 
-0

>  <r_i_glide_einternal>  (1) 
0

>  <r_i_glide_emodel>  (1) 
-29.149696477115747

>  <r_i_glide_emodel_strain>  (1) 
0

>  <r_i_glide_energy>  (1) 
-21.102606696593185

>  <r_i_glide_erotb>  (1) 
0

>  <r_i_glide_esite>  (1) 
0

>  <r_i_glide_evdw>  (1) 
-20.075445748423917

>  <r_i_glide_gscore>  (1) 
-6.0463984261905628

>  <r_i_glide_gscore_strain>  (1) 
0

>  <r_i_glide_hbond>  (1) 
0

>  <r_i_glide_ligand_efficiency>  (1) 
-0.67182204735450701

>  <r_i_glide_ligand_efficiency_ln>  (1) 
-1.8911397307061062

>  <r_i_glide_ligand_efficiency_sa>  (1) 
-1.3974461726717204

>  <r_i_glide_lipo>  (1) 
-2.1292879736855674

>  <r_i_glide_metal>  (1) 
-0

>  <r_i_glide_rewards>  (1) 
-2.7592640228584093

>  <r_lp_Energy>  (1) 
4.5932930000000001

>  <r_lp_tautomer_probability>  (1) 
1

>  <s_epik_cmdline>  (1) 
J2VwaWtfcHl0aG9uJywgJy1waHQnLCAnMS4wJywgJy1waCcsICc3LjQnLCAnLXRuJywgJzgnLCAnLW1hJywgJzUwMCcsICctaW1hZScsICc8aW5maWxlLm1hZT4nLCAnLW9tYWUnLCAnPG91dGZpbGUubWFlPic=

>  <s_epik_input>  (1) 
bzFbY0hdW2NIXWMoYzEyKVtDSDJdW0NIXT1bQ0hdW0NIMl0y

>  <s_glide_docking_method>  (1) 
confgen

>  <s_i_glide_gridfile>  (1) 
gpcr_drd2_6luq_protein_autoprepared_prepared

>  <s_lp_Force_Field>  (1) 
S-OPLS

>  <s_lp_Variant>  (1) 
Pocket2Mol_36-1

>  <s_m_source_file>  (1) 
generated_generic_title2_ligand_Pocket2Mol_2026-06-23_prepared.sdf

>  <GenAI_Model>  (1) 
Pocket2Mol

>  <Protein>  (1) 
generic_title2

$$$$
Pocket2Mol_36
     RDKit          3D

  0  0  0  0  0  0  0  0  0  0999 V3000
M  V30 BEGIN CTAB
M  V30 COUNTS 17 18 0 0 1
M  V30 BEGIN ATOM
M  V30 1 C 12.555732 7.992488 -2.235808 0
M  V30 2 O 12.216550 6.910642 -2.991672 0
M  V30 3 C 11.775408 7.429251 -4.174954 0
M  V30 4 C 11.827560 8.773656 -4.189412 0
M  V30 5 C 11.410247 9.624517 -5.338982 0
M  V30 6 C 11.315474 6.491045 -5.204395 0
M  V30 7 C 12.333651 9.151141 -2.919899 0
M  V30 8 C 10.865430 7.333349 -6.416550 0
M  V30 9 C 10.905736 8.700026 -6.476977 0
M  V30 10 H 12.930416 7.765599 -1.248989 0
M  V30 11 H 12.252109 10.224173 -5.687558 0
M  V30 12 H 10.616573 10.305256 -5.028071 0
M  V30 13 H 10.465996 5.923725 -4.830957 0
M  V30 14 H 12.103181 5.796544 -5.495268 0
M  V30 15 H 12.513538 10.144608 -2.548358 0
M  V30 16 H 10.492354 6.780163 -7.267428 0
M  V30 17 H 10.564223 9.190224 -7.374479 0
M  V30 END ATOM
M  V30 BEGIN BOND
M  V30 1 1 2 1
M  V30 2 1 3 2
M  V30 3 2 4 3
M  V30 4 1 5 4
M  V30 5 1 6 3
M  V30 6 2 7 1
M  V30 7 1 7 4
M  V30 8 1 8 6
M  V30 9 1 9 5
M  V30 10 2 9 8
M  V30 11 1 10 1
M  V30 12 1 11 5
M  V30 13 1 12 5
M  V30 14 1 13 6
M  V30 15 1 14 6
M  V30 16 1 15 7
M  V30 17 1 16 8
M  V30 18 1 17 9
M  V30 END BOND
M  V30 END CTAB
M  END
>  <i_epik_Tot_Q>  (1) 
0

>  <i_epik_Tot_abs_Q>  (1) 
0

>  <i_i_glide_confnum>  (1) 
1

>  <i_i_glide_lignum>  (1) 
41

>  <i_i_glide_posenum>  (1) 
390

>  <i_i_glide_rotatable_bonds>  (1) 
0

>  <i_lp_mmshare_version>  (1) 
72125

>  <i_m_source_file_index>  (1) 
37

>  <i_f3d_flags>  (1) 
0

>  <num_sample>  (1) 
50

>  <b_lp_Chiralities_Consistent>  (1) 
1

>  <r_epik_Charging_Adjusted_Penalty>  (1) 
0

>  <r_epik_Ionization_Penalty>  (1) 
0

>  <r_epik_Ionization_Penalty_Charging>  (1) 
0

>  <r_epik_Ionization_Penalty_Neutral>  (1) 
0

>  <r_epik_State_Penalty>  (1) 
-0

>  <r_glide_ring_energy>  (1) 
0

>  <r_i_docking_score>  (1) 
-6.037354199478087

>  <r_i_glide_ecoul>  (1) 
-0.70804006116257778

>  <r_i_glide_eff_state_penalty>  (1) 
-0

>  <r_i_glide_einternal>  (1) 
0

>  <r_i_glide_emodel>  (1) 
-27.922086301530413

>  <r_i_glide_emodel_strain>  (1) 
0

>  <r_i_glide_energy>  (1) 
-19.887033389771815

>  <r_i_glide_erotb>  (1) 
0

>  <r_i_glide_esite>  (1) 
0

>  <r_i_glide_evdw>  (1) 
-19.178993328609238

>  <r_i_glide_gscore>  (1) 
-6.037354199478087

>  <r_i_glide_gscore_strain>  (1) 
0

>  <r_i_glide_hbond>  (1) 
0

>  <r_i_glide_ligand_efficiency>  (1) 
-0.67081713327534298

>  <r_i_glide_ligand_efficiency_ln>  (1) 
-1.8883109564071139

>  <r_i_glide_ligand_efficiency_sa>  (1) 
-1.3953558671520945

>  <r_i_glide_lipo>  (1) 
-2.2055318572065721

>  <r_i_glide_metal>  (1) 
-0

>  <r_i_glide_rewards>  (1) 
-2.7666666666666666

>  <r_lp_Energy>  (1) 
4.5932930000000001

>  <r_lp_tautomer_probability>  (1) 
1

>  <s_epik_cmdline>  (1) 
J2VwaWtfcHl0aG9uJywgJy1waHQnLCAnMS4wJywgJy1waCcsICc3LjQnLCAnLXRuJywgJzgnLCAnLW1hJywgJzUwMCcsICctaW1hZScsICc8aW5maWxlLm1hZT4nLCAnLW9tYWUnLCAnPG91dGZpbGUubWFlPic=

>  <s_epik_input>  (1) 
bzFbY0hdW2NIXWMoYzEyKVtDSDJdW0NIXT1bQ0hdW0NIMl0y

>  <s_glide_docking_method>  (1) 
confgen

>  <s_i_glide_gridfile>  (1) 
gpcr_drd2_6luq_protein_autoprepared_prepared

>  <s_lp_Force_Field>  (1) 
S-OPLS

>  <s_lp_Variant>  (1) 
Pocket2Mol_36-1

>  <s_m_source_file>  (1) 
generated_generic_title2_ligand_Pocket2Mol_2026-06-23_prepared.sdf

>  <GenAI_Model>  (1) 
Pocket2Mol

>  <Protein>  (1) 
generic_title2

$$$$
Pocket2Mol_37
     RDKit          3D

  0  0  0  0  0  0  0  0  0  0999 V3000
M  V30 BEGIN CTAB
M  V30 COUNTS 15 16 0 0 1
M  V30 BEGIN ATOM
M  V30 1 C 11.142031 8.987125 -6.595188 0
M  V30 2 O 10.977572 7.689562 -6.155346 0
M  V30 3 C 11.375410 7.655467 -4.841302 0
M  V30 4 C 11.789234 8.935175 -4.445642 0
M  V30 5 C 12.233356 9.076686 -3.102984 0
M  V30 6 C 11.375448 6.545398 -3.997637 0
M  V30 7 C 11.636046 9.790975 -5.583901 0
M  V30 8 C 11.817151 6.695833 -2.674259 0
M  V30 9 C 12.247989 7.963200 -2.225240 0
M  V30 10 H 10.868466 9.174703 -7.623433 0
M  V30 11 H 12.563359 10.035322 -2.745787 0
M  V30 12 H 11.038415 5.590213 -4.358999 0
M  V30 13 H 11.860878 10.845112 -5.631828 0
M  V30 14 H 11.825707 5.847812 -2.003755 0
M  V30 15 H 12.589066 8.086803 -1.207508 0
M  V30 END ATOM
M  V30 BEGIN BOND
M  V30 1 1 2 1
M  V30 2 1 3 2
M  V30 3 1 4 3
M  V30 4 2 5 4
M  V30 5 2 6 3
M  V30 6 2 7 1
M  V30 7 1 7 4
M  V30 8 1 8 6
M  V30 9 1 9 5
M  V30 10 2 9 8
M  V30 11 1 10 1
M  V30 12 1 11 5
M  V30 13 1 12 6
M  V30 14 1 13 7
M  V30 15 1 14 8
M  V30 16 1 15 9
M  V30 END BOND
M  V30 END CTAB
M  END
>  <i_epik_Tot_Q>  (1) 
0

>  <i_epik_Tot_abs_Q>  (1) 
0

>  <i_i_glide_confnum>  (1) 
1

>  <i_i_glide_lignum>  (1) 
42

>  <i_i_glide_posenum>  (1) 
320

>  <i_i_glide_rotatable_bonds>  (1) 
0

>  <i_lp_mmshare_version>  (1) 
72125

>  <i_m_source_file_index>  (1) 
38

>  <i_f3d_flags>  (1) 
0

>  <num_sample>  (1) 
50

>  <b_lp_Chiralities_Consistent>  (1) 
1

>  <r_epik_Charging_Adjusted_Penalty>  (1) 
0

>  <r_epik_Ionization_Penalty>  (1) 
0

>  <r_epik_Ionization_Penalty_Charging>  (1) 
0

>  <r_epik_Ionization_Penalty_Neutral>  (1) 
0

>  <r_epik_State_Penalty>  (1) 
-0

>  <r_glide_ring_energy>  (1) 
0

>  <r_i_docking_score>  (1) 
-6.0230431170330796

>  <r_i_glide_ecoul>  (1) 
-0.92143729926359486

>  <r_i_glide_eff_state_penalty>  (1) 
-0

>  <r_i_glide_einternal>  (1) 
0

>  <r_i_glide_emodel>  (1) 
-27.16115222134064

>  <r_i_glide_emodel_strain>  (1) 
0

>  <r_i_glide_energy>  (1) 
-19.438894012603292

>  <r_i_glide_erotb>  (1) 
0

>  <r_i_glide_esite>  (1) 
0

>  <r_i_glide_evdw>  (1) 
-18.517456713339698

>  <r_i_glide_gscore>  (1) 
-6.0230431170330796

>  <r_i_glide_gscore_strain>  (1) 
0

>  <r_i_glide_hbond>  (1) 
0

>  <r_i_glide_ligand_efficiency>  (1) 
-0.66922701300367549

>  <r_i_glide_ligand_efficiency_ln>  (1) 
-1.8838348609377957

>  <r_i_glide_ligand_efficiency_sa>  (1) 
-1.3920482836982919

>  <r_i_glide_lipo>  (1) 
-2.3147212164802222

>  <r_i_glide_metal>  (1) 
-0

>  <r_i_glide_rewards>  (1) 
-2.6442334699963332

>  <r_lp_Energy>  (1) 
12.927653999999999

>  <r_lp_tautomer_probability>  (1) 
1

>  <s_epik_cmdline>  (1) 
J2VwaWtfcHl0aG9uJywgJy1waHQnLCAnMS4wJywgJy1waCcsICc3LjQnLCAnLXRuJywgJzgnLCAnLW1hJywgJzUwMCcsICctaW1hZScsICc8aW5maWxlLm1hZT4nLCAnLW9tYWUnLCAnPG91dGZpbGUubWFlPic=

>  <s_epik_input>  (1) 
bzFbY0hdW2NIXWMoYzEyKVtjSF1bY0hdW2NIXVtjSF0y

>  <s_glide_docking_method>  (1) 
confgen

>  <s_i_glide_gridfile>  (1) 
gpcr_drd2_6luq_protein_autoprepared_prepared

>  <s_lp_Force_Field>  (1) 
S-OPLS

>  <s_lp_Variant>  (1) 
Pocket2Mol_37-1

>  <s_m_source_file>  (1) 
generated_generic_title2_ligand_Pocket2Mol_2026-06-23_prepared.sdf

>  <GenAI_Model>  (1) 
Pocket2Mol

>  <Protein>  (1) 
generic_title2

$$$$
Pocket2Mol_31
     RDKit          3D

  0  0  0  0  0  0  0  0  0  0999 V3000
M  V30 BEGIN CTAB
M  V30 COUNTS 17 18 0 0 1
M  V30 BEGIN ATOM
M  V30 1 C 9.999637 8.031694 -7.358678 0
M  V30 2 O 10.784469 9.085260 -6.772854 0
M  V30 3 C 11.293773 8.624720 -5.591525 0
M  V30 4 C 10.975640 7.299184 -5.349430 0
M  V30 5 C 11.400320 6.628976 -4.189409 0
M  V30 6 C 10.168035 6.767718 -6.481880 0
M  V30 7 C 12.067047 9.356720 -4.673413 0
M  V30 8 C 12.507087 8.707928 -3.497444 0
M  V30 9 C 12.175411 7.352674 -3.256335 0
M  V30 10 H 8.955581 8.345495 -7.384539 0
M  V30 11 H 10.316606 7.849250 -8.385846 0
M  V30 12 H 11.144399 5.593865 -4.017319 0
M  V30 13 H 10.718200 5.982350 -7.000841 0
M  V30 14 H 9.212469 6.372208 -6.136584 0
M  V30 15 H 12.316729 10.390217 -4.862863 0
M  V30 16 H 13.101390 9.250716 -2.777253 0
M  V30 17 H 12.518730 6.868554 -2.353854 0
M  V30 END ATOM
M  V30 BEGIN BOND
M  V30 1 1 2 1
M  V30 2 1 3 2
M  V30 3 1 4 3
M  V30 4 2 5 4
M  V30 5 1 6 1
M  V30 6 1 6 4
M  V30 7 2 7 3
M  V30 8 1 8 7
M  V30 9 1 9 5
M  V30 10 2 9 8
M  V30 11 1 10 1
M  V30 12 1 11 1
M  V30 13 1 12 5
M  V30 14 1 13 6
M  V30 15 1 14 6
M  V30 16 1 15 7
M  V30 17 1 16 8
M  V30 18 1 17 9
M  V30 END BOND
M  V30 END CTAB
M  END
>  <i_epik_Tot_Q>  (1) 
0

>  <i_epik_Tot_abs_Q>  (1) 
0

>  <i_i_glide_confnum>  (1) 
1

>  <i_i_glide_lignum>  (1) 
35

>  <i_i_glide_posenum>  (1) 
331

>  <i_i_glide_rotatable_bonds>  (1) 
0

>  <i_lp_mmshare_version>  (1) 
72125

>  <i_m_source_file_index>  (1) 
32

>  <i_f3d_flags>  (1) 
0

>  <num_sample>  (1) 
50

>  <b_lp_Chiralities_Consistent>  (1) 
1

>  <r_epik_Charging_Adjusted_Penalty>  (1) 
0

>  <r_epik_Ionization_Penalty>  (1) 
0

>  <r_epik_Ionization_Penalty_Charging>  (1) 
0

>  <r_epik_Ionization_Penalty_Neutral>  (1) 
0

>  <r_epik_State_Penalty>  (1) 
-0

>  <r_glide_ring_energy>  (1) 
0

>  <r_i_docking_score>  (1) 
-6.0078843824591806

>  <r_i_glide_ecoul>  (1) 
-1.694455047502589

>  <r_i_glide_eff_state_penalty>  (1) 
-0

>  <r_i_glide_einternal>  (1) 
0

>  <r_i_glide_emodel>  (1) 
-28.373414491711976

>  <r_i_glide_emodel_strain>  (1) 
0

>  <r_i_glide_energy>  (1) 
-20.615141985680101

>  <r_i_glide_erotb>  (1) 
0

>  <r_i_glide_esite>  (1) 
0

>  <r_i_glide_evdw>  (1) 
-18.920686938177511

>  <r_i_glide_gscore>  (1) 
-6.0078843824591806

>  <r_i_glide_gscore_strain>  (1) 
0

>  <r_i_glide_hbond>  (1) 
0

>  <r_i_glide_ligand_efficiency>  (1) 
-0.66754270916213121

>  <r_i_glide_ligand_efficiency_ln>  (1) 
-1.8790936442333599

>  <r_i_glide_ligand_efficiency_sa>  (1) 
-1.3885447905243913

>  <r_i_glide_lipo>  (1) 
-2.1088672047343735

>  <r_i_glide_metal>  (1) 
-0

>  <r_i_glide_rewards>  (1) 
-2.6988145736905436

>  <r_lp_Energy>  (1) 
11.954839999999999

>  <r_lp_tautomer_probability>  (1) 
1

>  <s_epik_cmdline>  (1) 
J2VwaWtfcHl0aG9uJywgJy1waHQnLCAnMS4wJywgJy1waCcsICc3LjQnLCAnLXRuJywgJzgnLCAnLW1hJywgJzUwMCcsICctaW1hZScsICc8aW5maWxlLm1hZT4nLCAnLW9tYWUnLCAnPG91dGZpbGUubWFlPic=

>  <s_epik_input>  (1) 
TzFbQ0gyXVtDSDJdYyhjMTIpW2NIXVtjSF1bY0hdW2NIXTI=

>  <s_glide_docking_method>  (1) 
confgen

>  <s_i_glide_gridfile>  (1) 
gpcr_drd2_6luq_protein_autoprepared_prepared

>  <s_lp_Force_Field>  (1) 
S-OPLS

>  <s_lp_Variant>  (1) 
Pocket2Mol_31-1

>  <s_m_source_file>  (1) 
generated_generic_title2_ligand_Pocket2Mol_2026-06-23_prepared.sdf

>  <GenAI_Model>  (1) 
Pocket2Mol

>  <Protein>  (1) 
generic_title2

$$$$
Pocket2Mol_31
     RDKit          3D

  0  0  0  0  0  0  0  0  0  0999 V3000
M  V30 BEGIN CTAB
M  V30 COUNTS 17 18 0 0 1
M  V30 BEGIN ATOM
M  V30 1 C 11.017870 8.791760 -6.611777 0
M  V30 2 O 10.817262 7.448649 -6.038986 0
M  V30 3 C 11.375410 7.581217 -4.817631 0
M  V30 4 C 11.903527 8.790217 -4.538761 0
M  V30 5 C 12.520273 9.051659 -3.303429 0
M  V30 6 C 11.784868 9.779491 -5.612849 0
M  V30 7 C 11.409354 6.540546 -3.881428 0
M  V30 8 C 12.014563 6.763186 -2.623977 0
M  V30 9 C 12.575410 8.028277 -2.334337 0
M  V30 10 H 11.567935 8.699922 -7.548854 0
M  V30 11 H 10.035048 9.190227 -6.862572 0
M  V30 12 H 12.945319 10.012741 -3.097334 0
M  V30 13 H 11.184608 10.639117 -5.312802 0
M  V30 14 H 12.761257 10.090927 -5.985012 0
M  V30 15 H 10.975411 5.590226 -4.118058 0
M  V30 16 H 12.048033 5.971716 -1.889449 0
M  V30 17 H 13.041905 8.210985 -1.377579 0
M  V30 END ATOM
M  V30 BEGIN BOND
M  V30 1 1 2 1
M  V30 2 1 3 2
M  V30 3 1 4 3
M  V30 4 2 5 4
M  V30 5 1 6 1
M  V30 6 1 6 4
M  V30 7 2 7 3
M  V30 8 1 8 7
M  V30 9 1 9 5
M  V30 10 2 9 8
M  V30 11 1 10 1
M  V30 12 1 11 1
M  V30 13 1 12 5
M  V30 14 1 13 6
M  V30 15 1 14 6
M  V30 16 1 15 7
M  V30 17 1 16 8
M  V30 18 1 17 9
M  V30 END BOND
M  V30 END CTAB
M  END
>  <i_epik_Tot_Q>  (1) 
0

>  <i_epik_Tot_abs_Q>  (1) 
0

>  <i_i_glide_confnum>  (1) 
1

>  <i_i_glide_lignum>  (1) 
35

>  <i_i_glide_posenum>  (1) 
348

>  <i_i_glide_rotatable_bonds>  (1) 
0

>  <i_lp_mmshare_version>  (1) 
72125

>  <i_m_source_file_index>  (1) 
32

>  <i_f3d_flags>  (1) 
0

>  <num_sample>  (1) 
50

>  <b_lp_Chiralities_Consistent>  (1) 
1

>  <r_epik_Charging_Adjusted_Penalty>  (1) 
0

>  <r_epik_Ionization_Penalty>  (1) 
0

>  <r_epik_Ionization_Penalty_Charging>  (1) 
0

>  <r_epik_Ionization_Penalty_Neutral>  (1) 
0

>  <r_epik_State_Penalty>  (1) 
-0

>  <r_glide_ring_energy>  (1) 
0

>  <r_i_docking_score>  (1) 
-5.9944334138929314

>  <r_i_glide_ecoul>  (1) 
-0.27520770629446933

>  <r_i_glide_eff_state_penalty>  (1) 
-0

>  <r_i_glide_einternal>  (1) 
0

>  <r_i_glide_emodel>  (1) 
-27.149991174187182

>  <r_i_glide_emodel_strain>  (1) 
0

>  <r_i_glide_energy>  (1) 
-19.409088556282931

>  <r_i_glide_erotb>  (1) 
0

>  <r_i_glide_esite>  (1) 
0

>  <r_i_glide_evdw>  (1) 
-19.133880849988461

>  <r_i_glide_gscore>  (1) 
-5.9944334138929314

>  <r_i_glide_gscore_strain>  (1) 
0

>  <r_i_glide_hbond>  (1) 
0

>  <r_i_glide_ligand_efficiency>  (1) 
-0.66604815709921461

>  <r_i_glide_ligand_efficiency_ln>  (1) 
-1.8748865676765245

>  <r_i_glide_ligand_efficiency_sa>  (1) 
-1.3854359969556098

>  <r_i_glide_lipo>  (1) 
-2.259373250797982

>  <r_i_glide_metal>  (1) 
-0

>  <r_i_glide_rewards>  (1) 
-2.7370849646513551

>  <r_lp_Energy>  (1) 
11.954839999999999

>  <r_lp_tautomer_probability>  (1) 
1

>  <s_epik_cmdline>  (1) 
J2VwaWtfcHl0aG9uJywgJy1waHQnLCAnMS4wJywgJy1waCcsICc3LjQnLCAnLXRuJywgJzgnLCAnLW1hJywgJzUwMCcsICctaW1hZScsICc8aW5maWxlLm1hZT4nLCAnLW9tYWUnLCAnPG91dGZpbGUubWFlPic=

>  <s_epik_input>  (1) 
TzFbQ0gyXVtDSDJdYyhjMTIpW2NIXVtjSF1bY0hdW2NIXTI=

>  <s_glide_docking_method>  (1) 
confgen

>  <s_i_glide_gridfile>  (1) 
gpcr_drd2_6luq_protein_autoprepared_prepared

>  <s_lp_Force_Field>  (1) 
S-OPLS

>  <s_lp_Variant>  (1) 
Pocket2Mol_31-1

>  <s_m_source_file>  (1) 
generated_generic_title2_ligand_Pocket2Mol_2026-06-23_prepared.sdf

>  <GenAI_Model>  (1) 
Pocket2Mol

>  <Protein>  (1) 
generic_title2

$$$$
Pocket2Mol_40
     RDKit          3D

  0  0  0  0  0  0  0  0  0  0999 V3000
M  V30 BEGIN CTAB
M  V30 COUNTS 15 16 0 0 1
M  V30 BEGIN ATOM
M  V30 1 C 11.163451 9.058855 -6.618790 0
M  V30 2 O 11.876588 9.693214 -5.518300 0
M  V30 3 C 11.922095 8.762854 -4.524853 0
M  V30 4 C 11.375410 7.531175 -4.785026 0
M  V30 5 C 11.375412 6.516942 -3.821472 0
M  V30 6 C 12.510580 9.031095 -3.276205 0
M  V30 7 C 12.527522 8.026038 -2.285796 0
M  V30 8 S 10.699321 7.293279 -6.335700 0
M  V30 9 C 11.955259 6.763150 -2.558479 0
M  V30 10 H 10.230041 9.590226 -6.785024 0
M  V30 11 H 11.753818 9.138727 -7.531784 0
M  V30 12 H 10.935574 5.567125 -4.042882 0
M  V30 13 H 12.946593 9.990230 -3.076702 0
M  V30 14 H 12.975412 8.222514 -1.322771 0
M  V30 15 H 11.961991 5.989172 -1.804755 0
M  V30 END ATOM
M  V30 BEGIN BOND
M  V30 1 1 2 1
M  V30 2 1 3 2
M  V30 3 1 4 3
M  V30 4 2 5 4
M  V30 5 2 6 3
M  V30 6 1 7 6
M  V30 7 1 8 1
M  V30 8 1 8 4
M  V30 9 1 9 5
M  V30 10 2 9 7
M  V30 11 1 10 1
M  V30 12 1 11 1
M  V30 13 1 12 5
M  V30 14 1 13 6
M  V30 15 1 14 7
M  V30 16 1 15 9
M  V30 END BOND
M  V30 END CTAB
M  END
>  <i_epik_Tot_Q>  (1) 
0

>  <i_epik_Tot_abs_Q>  (1) 
0

>  <i_i_glide_confnum>  (1) 
1

>  <i_i_glide_lignum>  (1) 
45

>  <i_i_glide_posenum>  (1) 
247

>  <i_i_glide_rotatable_bonds>  (1) 
0

>  <i_lp_mmshare_version>  (1) 
72125

>  <i_m_source_file_index>  (1) 
41

>  <i_f3d_flags>  (1) 
0

>  <num_sample>  (1) 
50

>  <b_lp_Chiralities_Consistent>  (1) 
1

>  <r_epik_Charging_Adjusted_Penalty>  (1) 
0

>  <r_epik_Ionization_Penalty>  (1) 
0

>  <r_epik_Ionization_Penalty_Charging>  (1) 
0

>  <r_epik_Ionization_Penalty_Neutral>  (1) 
0

>  <r_epik_State_Penalty>  (1) 
-0

>  <r_glide_ring_energy>  (1) 
0

>  <r_i_docking_score>  (1) 
-5.9760040179849243

>  <r_i_glide_ecoul>  (1) 
-0.34289326908993945

>  <r_i_glide_eff_state_penalty>  (1) 
-0

>  <r_i_glide_einternal>  (1) 
0

>  <r_i_glide_emodel>  (1) 
-28.48088685438546

>  <r_i_glide_emodel_strain>  (1) 
0

>  <r_i_glide_energy>  (1) 
-20.183262125729541

>  <r_i_glide_erotb>  (1) 
0

>  <r_i_glide_esite>  (1) 
0

>  <r_i_glide_evdw>  (1) 
-19.840368856639603

>  <r_i_glide_gscore>  (1) 
-5.9760040179849243

>  <r_i_glide_gscore_strain>  (1) 
0

>  <r_i_glide_hbond>  (1) 
0

>  <r_i_glide_ligand_efficiency>  (1) 
-0.66400044644276934

>  <r_i_glide_ligand_efficiency_ln>  (1) 
-1.869122382064214

>  <r_i_glide_ligand_efficiency_sa>  (1) 
-1.3811765871448469

>  <r_i_glide_lipo>  (1) 
-2.1884467782634953

>  <r_i_glide_metal>  (1) 
-0

>  <r_i_glide_rewards>  (1) 
-2.7441048065259581

>  <r_lp_Energy>  (1) 
5.8399909999999995

>  <r_lp_tautomer_probability>  (1) 
1

>  <s_epik_Chemistry_Notes>  (1) 
This compound contains an acetal/aminal-like group ( X-CH(R)-Y where X, Y are N, S, or O) that may be acid/base labile, releasing an aldehyde.

>  <s_epik_cmdline>  (1) 
J2VwaWtfcHl0aG9uJywgJy1waHQnLCAnMS4wJywgJy1waCcsICc3LjQnLCAnLXRuJywgJzgnLCAnLW1hJywgJzUwMCcsICctaW1hZScsICc8aW5maWxlLm1hZT4nLCAnLW9tYWUnLCAnPG91dGZpbGUubWFlPic=

>  <s_epik_input>  (1) 
TzFbQ0gyXVNjKGMxMilbY0hdW2NIXVtjSF1bY0hdMg==

>  <s_glide_docking_method>  (1) 
confgen

>  <s_i_glide_gridfile>  (1) 
gpcr_drd2_6luq_protein_autoprepared_prepared

>  <s_lp_Force_Field>  (1) 
S-OPLS

>  <s_lp_Variant>  (1) 
Pocket2Mol_40-1

>  <s_m_source_file>  (1) 
generated_generic_title2_ligand_Pocket2Mol_2026-06-23_prepared.sdf

>  <GenAI_Model>  (1) 
Pocket2Mol

>  <Protein>  (1) 
generic_title2

$$$$
Pocket2Mol_37
     RDKit          3D

  0  0  0  0  0  0  0  0  0  0999 V3000
M  V30 BEGIN CTAB
M  V30 COUNTS 15 16 0 0 1
M  V30 BEGIN ATOM
M  V30 1 C 11.258601 9.023895 -6.495240 0
M  V30 2 O 11.882864 9.684200 -5.454311 0
M  V30 3 C 11.960154 8.798474 -4.407645 0
M  V30 4 C 11.375410 7.578862 -4.785025 0
M  V30 5 C 11.375443 6.543873 -3.817363 0
M  V30 6 C 12.526998 9.031970 -3.154150 0
M  V30 7 C 10.920737 7.734282 -6.129968 0
M  V30 8 C 12.521983 8.002010 -2.204471 0
M  V30 9 C 11.945550 6.754874 -2.533460 0
M  V30 10 H 11.132492 9.590227 -7.403322 0
M  V30 11 H 10.937779 5.590227 -4.059221 0
M  V30 12 H 12.963703 9.990226 -2.920651 0
M  V30 13 H 10.423311 6.987662 -6.732085 0
M  V30 14 H 12.956343 8.161169 -1.227991 0
M  V30 15 H 11.938171 5.956395 -1.805000 0
M  V30 END ATOM
M  V30 BEGIN BOND
M  V30 1 1 2 1
M  V30 2 1 3 2
M  V30 3 1 4 3
M  V30 4 2 5 4
M  V30 5 2 6 3
M  V30 6 2 7 1
M  V30 7 1 7 4
M  V30 8 1 8 6
M  V30 9 1 9 5
M  V30 10 2 9 8
M  V30 11 1 10 1
M  V30 12 1 11 5
M  V30 13 1 12 6
M  V30 14 1 13 7
M  V30 15 1 14 8
M  V30 16 1 15 9
M  V30 END BOND
M  V30 END CTAB
M  END
>  <i_epik_Tot_Q>  (1) 
0

>  <i_epik_Tot_abs_Q>  (1) 
0

>  <i_i_glide_confnum>  (1) 
1

>  <i_i_glide_lignum>  (1) 
42

>  <i_i_glide_posenum>  (1) 
96

>  <i_i_glide_rotatable_bonds>  (1) 
0

>  <i_lp_mmshare_version>  (1) 
72125

>  <i_m_source_file_index>  (1) 
38

>  <i_f3d_flags>  (1) 
0

>  <num_sample>  (1) 
50

>  <b_lp_Chiralities_Consistent>  (1) 
1

>  <r_epik_Charging_Adjusted_Penalty>  (1) 
0

>  <r_epik_Ionization_Penalty>  (1) 
0

>  <r_epik_Ionization_Penalty_Charging>  (1) 
0

>  <r_epik_Ionization_Penalty_Neutral>  (1) 
0

>  <r_epik_State_Penalty>  (1) 
-0

>  <r_glide_ring_energy>  (1) 
0

>  <r_i_docking_score>  (1) 
-5.926253407310317

>  <r_i_glide_ecoul>  (1) 
-1.3112780280444627

>  <r_i_glide_eff_state_penalty>  (1) 
-0

>  <r_i_glide_einternal>  (1) 
0

>  <r_i_glide_emodel>  (1) 
-26.594130475596188

>  <r_i_glide_emodel_strain>  (1) 
0

>  <r_i_glide_energy>  (1) 
-18.995968195761321

>  <r_i_glide_erotb>  (1) 
0

>  <r_i_glide_esite>  (1) 
0

>  <r_i_glide_evdw>  (1) 
-17.684690167716859

>  <r_i_glide_gscore>  (1) 
-5.926253407310317

>  <r_i_glide_gscore_strain>  (1) 
0

>  <r_i_glide_hbond>  (1) 
0

>  <r_i_glide_ligand_efficiency>  (1) 
-0.65847260081225745

>  <r_i_glide_ligand_efficiency_ln>  (1) 
-1.8535618202484228

>  <r_i_glide_ligand_efficiency_sa>  (1) 
-1.3696782048724909

>  <r_i_glide_lipo>  (1) 
-2.1989738835397743

>  <r_i_glide_metal>  (1) 
-0

>  <r_i_glide_rewards>  (1) 
-2.6463533111780304

>  <r_lp_Energy>  (1) 
12.927653999999999

>  <r_lp_tautomer_probability>  (1) 
1

>  <s_epik_cmdline>  (1) 
J2VwaWtfcHl0aG9uJywgJy1waHQnLCAnMS4wJywgJy1waCcsICc3LjQnLCAnLXRuJywgJzgnLCAnLW1hJywgJzUwMCcsICctaW1hZScsICc8aW5maWxlLm1hZT4nLCAnLW9tYWUnLCAnPG91dGZpbGUubWFlPic=

>  <s_epik_input>  (1) 
bzFbY0hdW2NIXWMoYzEyKVtjSF1bY0hdW2NIXVtjSF0y

>  <s_glide_docking_method>  (1) 
confgen

>  <s_i_glide_gridfile>  (1) 
gpcr_drd2_6luq_protein_autoprepared_prepared

>  <s_lp_Force_Field>  (1) 
S-OPLS

>  <s_lp_Variant>  (1) 
Pocket2Mol_37-1

>  <s_m_source_file>  (1) 
generated_generic_title2_ligand_Pocket2Mol_2026-06-23_prepared.sdf

>  <GenAI_Model>  (1) 
Pocket2Mol

>  <Protein>  (1) 
generic_title2

$$$$
Pocket2Mol_36
     RDKit          3D

  0  0  0  0  0  0  0  0  0  0999 V3000
M  V30 BEGIN CTAB
M  V30 COUNTS 17 18 0 0 1
M  V30 BEGIN ATOM
M  V30 1 C 11.180452 9.018767 -6.470590 0
M  V30 2 O 11.691806 9.717296 -5.414672 0
M  V30 3 C 11.798804 8.801830 -4.407681 0
M  V30 4 C 11.375427 7.583783 -4.785020 0
M  V30 5 C 11.375410 6.390209 -3.909275 0
M  V30 6 C 12.341289 9.254732 -3.121719 0
M  V30 7 C 10.964514 7.715318 -6.133674 0
M  V30 8 C 12.381641 8.030933 -2.186575 0
M  V30 9 C 11.959827 6.776254 -2.529673 0
M  V30 10 H 11.034361 9.590222 -7.371495 0
M  V30 11 H 11.976483 5.603468 -4.361168 0
M  V30 12 H 10.361903 6.004707 -3.793053 0
M  V30 13 H 11.717373 10.032935 -2.682713 0
M  V30 14 H 13.350652 9.642961 -3.249452 0
M  V30 15 H 10.564283 6.948706 -6.782399 0
M  V30 16 H 12.775389 8.202487 -1.195222 0
M  V30 17 H 12.028060 5.980199 -1.802473 0
M  V30 END ATOM
M  V30 BEGIN BOND
M  V30 1 1 2 1
M  V30 2 1 3 2
M  V30 3 2 4 3
M  V30 4 1 5 4
M  V30 5 1 6 3
M  V30 6 2 7 1
M  V30 7 1 7 4
M  V30 8 1 8 6
M  V30 9 1 9 5
M  V30 10 2 9 8
M  V30 11 1 10 1
M  V30 12 1 11 5
M  V30 13 1 12 5
M  V30 14 1 13 6
M  V30 15 1 14 6
M  V30 16 1 15 7
M  V30 17 1 16 8
M  V30 18 1 17 9
M  V30 END BOND
M  V30 END CTAB
M  END
>  <i_epik_Tot_Q>  (1) 
0

>  <i_epik_Tot_abs_Q>  (1) 
0

>  <i_i_glide_confnum>  (1) 
1

>  <i_i_glide_lignum>  (1) 
41

>  <i_i_glide_posenum>  (1) 
75

>  <i_i_glide_rotatable_bonds>  (1) 
0

>  <i_lp_mmshare_version>  (1) 
72125

>  <i_m_source_file_index>  (1) 
37

>  <i_f3d_flags>  (1) 
0

>  <num_sample>  (1) 
50

>  <b_lp_Chiralities_Consistent>  (1) 
1

>  <r_epik_Charging_Adjusted_Penalty>  (1) 
0

>  <r_epik_Ionization_Penalty>  (1) 
0

>  <r_epik_Ionization_Penalty_Charging>  (1) 
0

>  <r_epik_Ionization_Penalty_Neutral>  (1) 
0

>  <r_epik_State_Penalty>  (1) 
-0

>  <r_glide_ring_energy>  (1) 
0

>  <r_i_docking_score>  (1) 
-5.9242498526978489

>  <r_i_glide_ecoul>  (1) 
-1.172589599750556

>  <r_i_glide_eff_state_penalty>  (1) 
-0

>  <r_i_glide_einternal>  (1) 
0

>  <r_i_glide_emodel>  (1) 
-28.212320268779841

>  <r_i_glide_emodel_strain>  (1) 
0

>  <r_i_glide_energy>  (1) 
-20.32779677452795

>  <r_i_glide_erotb>  (1) 
0

>  <r_i_glide_esite>  (1) 
0

>  <r_i_glide_evdw>  (1) 
-19.155207174777395

>  <r_i_glide_gscore>  (1) 
-5.9242498526978489

>  <r_i_glide_gscore_strain>  (1) 
0

>  <r_i_glide_hbond>  (1) 
0

>  <r_i_glide_ligand_efficiency>  (1) 
-0.65824998363309428

>  <r_i_glide_ligand_efficiency_ln>  (1) 
-1.852935165922458

>  <r_i_glide_ligand_efficiency_sa>  (1) 
-1.3692151424793804

>  <r_i_glide_lipo>  (1) 
-2.1440181196867565

>  <r_i_glide_metal>  (1) 
-0

>  <r_i_glide_rewards>  (1) 
-2.6465829343096394

>  <r_lp_Energy>  (1) 
4.5932930000000001

>  <r_lp_tautomer_probability>  (1) 
1

>  <s_epik_cmdline>  (1) 
J2VwaWtfcHl0aG9uJywgJy1waHQnLCAnMS4wJywgJy1waCcsICc3LjQnLCAnLXRuJywgJzgnLCAnLW1hJywgJzUwMCcsICctaW1hZScsICc8aW5maWxlLm1hZT4nLCAnLW9tYWUnLCAnPG91dGZpbGUubWFlPic=

>  <s_epik_input>  (1) 
bzFbY0hdW2NIXWMoYzEyKVtDSDJdW0NIXT1bQ0hdW0NIMl0y

>  <s_glide_docking_method>  (1) 
confgen

>  <s_i_glide_gridfile>  (1) 
gpcr_drd2_6luq_protein_autoprepared_prepared

>  <s_lp_Force_Field>  (1) 
S-OPLS

>  <s_lp_Variant>  (1) 
Pocket2Mol_36-1

>  <s_m_source_file>  (1) 
generated_generic_title2_ligand_Pocket2Mol_2026-06-23_prepared.sdf

>  <GenAI_Model>  (1) 
Pocket2Mol

>  <Protein>  (1) 
generic_title2

$$$$
Pocket2Mol_40
     RDKit          3D

  0  0  0  0  0  0  0  0  0  0999 V3000
M  V30 BEGIN CTAB
M  V30 COUNTS 15 16 0 0 1
M  V30 BEGIN ATOM
M  V30 1 C 10.546399 6.968800 -6.871850 0
M  V30 2 O 10.975443 6.235906 -5.691691 0
M  V30 3 C 11.375378 7.166405 -4.785614 0
M  V30 4 C 11.375346 8.476428 -5.188398 0
M  V30 5 C 11.772083 9.505759 -4.326718 0
M  V30 6 C 11.775611 6.816614 -3.482998 0
M  V30 7 C 12.178932 7.834082 -2.588372 0
M  V30 8 S 10.874208 8.790224 -6.787974 0
M  V30 9 C 12.175742 9.185583 -3.012899 0
M  V30 10 H 11.042402 6.554968 -7.750194 0
M  V30 11 H 9.475096 6.813797 -7.007158 0
M  V30 12 H 11.764742 10.528807 -4.665626 0
M  V30 13 H 11.773177 5.783133 -3.169974 0
M  V30 14 H 12.487846 7.582072 -1.585025 0
M  V30 15 H 12.481835 9.967571 -2.334957 0
M  V30 END ATOM
M  V30 BEGIN BOND
M  V30 1 1 2 1
M  V30 2 1 3 2
M  V30 3 1 4 3
M  V30 4 2 5 4
M  V30 5 2 6 3
M  V30 6 1 7 6
M  V30 7 1 8 1
M  V30 8 1 8 4
M  V30 9 1 9 5
M  V30 10 2 9 7
M  V30 11 1 10 1
M  V30 12 1 11 1
M  V30 13 1 12 5
M  V30 14 1 13 6
M  V30 15 1 14 7
M  V30 16 1 15 9
M  V30 END BOND
M  V30 END CTAB
M  END
>  <i_epik_Tot_Q>  (1) 
0

>  <i_epik_Tot_abs_Q>  (1) 
0

>  <i_i_glide_confnum>  (1) 
1

>  <i_i_glide_lignum>  (1) 
45

>  <i_i_glide_posenum>  (1) 
173

>  <i_i_glide_rotatable_bonds>  (1) 
0

>  <i_lp_mmshare_version>  (1) 
72125

>  <i_m_source_file_index>  (1) 
41

>  <i_f3d_flags>  (1) 
0

>  <num_sample>  (1) 
50

>  <b_lp_Chiralities_Consistent>  (1) 
1

>  <r_epik_Charging_Adjusted_Penalty>  (1) 
0

>  <r_epik_Ionization_Penalty>  (1) 
0

>  <r_epik_Ionization_Penalty_Charging>  (1) 
0

>  <r_epik_Ionization_Penalty_Neutral>  (1) 
0

>  <r_epik_State_Penalty>  (1) 
-0

>  <r_glide_ring_energy>  (1) 
0

>  <r_i_docking_score>  (1) 
-5.9074892810947359

>  <r_i_glide_ecoul>  (1) 
-0.5273740786457376

>  <r_i_glide_eff_state_penalty>  (1) 
-0

>  <r_i_glide_einternal>  (1) 
0

>  <r_i_glide_emodel>  (1) 
-28.702905397672772

>  <r_i_glide_emodel_strain>  (1) 
0

>  <r_i_glide_energy>  (1) 
-20.500412729401422

>  <r_i_glide_erotb>  (1) 
0

>  <r_i_glide_esite>  (1) 
0

>  <r_i_glide_evdw>  (1) 
-19.973038650755683

>  <r_i_glide_gscore>  (1) 
-5.9074892810947359

>  <r_i_glide_gscore_strain>  (1) 
0

>  <r_i_glide_hbond>  (1) 
0

>  <r_i_glide_ligand_efficiency>  (1) 
-0.65638769789941509

>  <r_i_glide_ligand_efficiency_ln>  (1) 
-1.8476929406118179

>  <r_i_glide_ligand_efficiency_sa>  (1) 
-1.3653414320508539

>  <r_i_glide_lipo>  (1) 
-2.1484070872311647

>  <r_i_glide_metal>  (1) 
-0

>  <r_i_glide_rewards>  (1) 
-2.6813241495289275

>  <r_lp_Energy>  (1) 
5.8399909999999995

>  <r_lp_tautomer_probability>  (1) 
1

>  <s_epik_Chemistry_Notes>  (1) 
This compound contains an acetal/aminal-like group ( X-CH(R)-Y where X, Y are N, S, or O) that may be acid/base labile, releasing an aldehyde.

>  <s_epik_cmdline>  (1) 
J2VwaWtfcHl0aG9uJywgJy1waHQnLCAnMS4wJywgJy1waCcsICc3LjQnLCAnLXRuJywgJzgnLCAnLW1hJywgJzUwMCcsICctaW1hZScsICc8aW5maWxlLm1hZT4nLCAnLW9tYWUnLCAnPG91dGZpbGUubWFlPic=

>  <s_epik_input>  (1) 
TzFbQ0gyXVNjKGMxMilbY0hdW2NIXVtjSF1bY0hdMg==

>  <s_glide_docking_method>  (1) 
confgen

>  <s_i_glide_gridfile>  (1) 
gpcr_drd2_6luq_protein_autoprepared_prepared

>  <s_lp_Force_Field>  (1) 
S-OPLS

>  <s_lp_Variant>  (1) 
Pocket2Mol_40-1

>  <s_m_source_file>  (1) 
generated_generic_title2_ligand_Pocket2Mol_2026-06-23_prepared.sdf

>  <GenAI_Model>  (1) 
Pocket2Mol

>  <Protein>  (1) 
generic_title2

$$$$
Pocket2Mol_37
     RDKit          3D

  0  0  0  0  0  0  0  0  0  0999 V3000
M  V30 BEGIN CTAB
M  V30 COUNTS 15 16 0 0 1
M  V30 BEGIN ATOM
M  V30 1 C 9.775410 7.610485 -7.538091 0
M  V30 2 O 10.374265 8.790227 -7.152075 0
M  V30 3 C 11.011179 8.552718 -5.959042 0
M  V30 4 C 10.826353 7.212720 -5.594897 0
M  V30 5 C 11.425273 6.790225 -4.379107 0
M  V30 6 C 11.738621 9.473337 -5.196350 0
M  V30 7 C 10.029343 6.611214 -6.619724 0
M  V30 8 C 12.327631 9.046000 -3.994752 0
M  V30 9 C 12.175410 7.702020 -3.585025 0
M  V30 10 H 9.216349 7.642001 -8.464552 0
M  V30 11 H 11.310222 5.766588 -4.055039 0
M  V30 12 H 11.845025 10.495223 -5.528142 0
M  V30 13 H 9.693018 5.590227 -6.655698 0
M  V30 14 H 12.894973 9.737767 -3.389022 0
M  V30 15 H 12.626743 7.366483 -2.662436 0
M  V30 END ATOM
M  V30 BEGIN BOND
M  V30 1 1 2 1
M  V30 2 1 3 2
M  V30 3 1 4 3
M  V30 4 2 5 4
M  V30 5 2 6 3
M  V30 6 2 7 1
M  V30 7 1 7 4
M  V30 8 1 8 6
M  V30 9 1 9 5
M  V30 10 2 9 8
M  V30 11 1 10 1
M  V30 12 1 11 5
M  V30 13 1 12 6
M  V30 14 1 13 7
M  V30 15 1 14 8
M  V30 16 1 15 9
M  V30 END BOND
M  V30 END CTAB
M  END
>  <i_epik_Tot_Q>  (1) 
0

>  <i_epik_Tot_abs_Q>  (1) 
0

>  <i_i_glide_confnum>  (1) 
1

>  <i_i_glide_lignum>  (1) 
42

>  <i_i_glide_posenum>  (1) 
197

>  <i_i_glide_rotatable_bonds>  (1) 
0

>  <i_lp_mmshare_version>  (1) 
72125

>  <i_m_source_file_index>  (1) 
38

>  <i_f3d_flags>  (1) 
0

>  <num_sample>  (1) 
50

>  <b_lp_Chiralities_Consistent>  (1) 
1

>  <r_epik_Charging_Adjusted_Penalty>  (1) 
0

>  <r_epik_Ionization_Penalty>  (1) 
0

>  <r_epik_Ionization_Penalty_Charging>  (1) 
0

>  <r_epik_Ionization_Penalty_Neutral>  (1) 
0

>  <r_epik_State_Penalty>  (1) 
-0

>  <r_glide_ring_energy>  (1) 
0

>  <r_i_docking_score>  (1) 
-5.9072433462358003

>  <r_i_glide_ecoul>  (1) 
-1.679225761712122

>  <r_i_glide_eff_state_penalty>  (1) 
-0

>  <r_i_glide_einternal>  (1) 
0

>  <r_i_glide_emodel>  (1) 
-28.141626456268291

>  <r_i_glide_emodel_strain>  (1) 
0

>  <r_i_glide_energy>  (1) 
-20.567837337529703

>  <r_i_glide_erotb>  (1) 
0

>  <r_i_glide_esite>  (1) 
0

>  <r_i_glide_evdw>  (1) 
-18.888611575817581

>  <r_i_glide_gscore>  (1) 
-5.9072433462358003

>  <r_i_glide_gscore_strain>  (1) 
0

>  <r_i_glide_hbond>  (1) 
0

>  <r_i_glide_ligand_efficiency>  (1) 
-0.65636037180397777

>  <r_i_glide_ligand_efficiency_ln>  (1) 
-1.8476160192529996

>  <r_i_glide_ligand_efficiency_sa>  (1) 
-1.3652845914817875

>  <r_i_glide_lipo>  (1) 
-1.9503051557330549

>  <r_i_glide_metal>  (1) 
-0

>  <r_i_glide_rewards>  (1) 
-2.7606237474550479

>  <r_lp_Energy>  (1) 
12.927653999999999

>  <r_lp_tautomer_probability>  (1) 
1

>  <s_epik_cmdline>  (1) 
J2VwaWtfcHl0aG9uJywgJy1waHQnLCAnMS4wJywgJy1waCcsICc3LjQnLCAnLXRuJywgJzgnLCAnLW1hJywgJzUwMCcsICctaW1hZScsICc8aW5maWxlLm1hZT4nLCAnLW9tYWUnLCAnPG91dGZpbGUubWFlPic=

>  <s_epik_input>  (1) 
bzFbY0hdW2NIXWMoYzEyKVtjSF1bY0hdW2NIXVtjSF0y

>  <s_glide_docking_method>  (1) 
confgen

>  <s_i_glide_gridfile>  (1) 
gpcr_drd2_6luq_protein_autoprepared_prepared

>  <s_lp_Force_Field>  (1) 
S-OPLS

>  <s_lp_Variant>  (1) 
Pocket2Mol_37-1

>  <s_m_source_file>  (1) 
generated_generic_title2_ligand_Pocket2Mol_2026-06-23_prepared.sdf

>  <GenAI_Model>  (1) 
Pocket2Mol

>  <Protein>  (1) 
generic_title2

$$$$
Pocket2Mol_37
     RDKit          3D

  0  0  0  0  0  0  0  0  0  0999 V3000
M  V30 BEGIN CTAB
M  V30 COUNTS 15 16 0 0 1
M  V30 BEGIN ATOM
M  V30 1 C 10.662597 7.050279 -6.919313 0
M  V30 2 O 10.952573 6.297070 -5.802317 0
M  V30 3 C 11.375410 7.159093 -4.825956 0
M  V30 4 C 11.360819 8.468047 -5.327544 0
M  V30 5 C 11.773959 9.496730 -4.444577 0
M  V30 6 C 11.775411 6.827280 -3.527193 0
M  V30 7 C 10.899740 8.388993 -6.679929 0
M  V30 8 C 12.183022 7.852428 -2.660832 0
M  V30 9 C 12.181419 9.190226 -3.117819 0
M  V30 10 H 10.308444 6.502404 -7.781267 0
M  V30 11 H 11.775467 10.520120 -4.785022 0
M  V30 12 H 11.768085 5.799292 -3.197385 0
M  V30 13 H 10.766146 9.207518 -7.363543 0
M  V30 14 H 12.494909 7.621481 -1.652258 0
M  V30 15 H 12.493412 9.984511 -2.453522 0
M  V30 END ATOM
M  V30 BEGIN BOND
M  V30 1 1 2 1
M  V30 2 1 3 2
M  V30 3 1 4 3
M  V30 4 2 5 4
M  V30 5 2 6 3
M  V30 6 2 7 1
M  V30 7 1 7 4
M  V30 8 1 8 6
M  V30 9 1 9 5
M  V30 10 2 9 8
M  V30 11 1 10 1
M  V30 12 1 11 5
M  V30 13 1 12 6
M  V30 14 1 13 7
M  V30 15 1 14 8
M  V30 16 1 15 9
M  V30 END BOND
M  V30 END CTAB
M  END
>  <i_epik_Tot_Q>  (1) 
0

>  <i_epik_Tot_abs_Q>  (1) 
0

>  <i_i_glide_confnum>  (1) 
1

>  <i_i_glide_lignum>  (1) 
42

>  <i_i_glide_posenum>  (1) 
108

>  <i_i_glide_rotatable_bonds>  (1) 
0

>  <i_lp_mmshare_version>  (1) 
72125

>  <i_m_source_file_index>  (1) 
38

>  <i_f3d_flags>  (1) 
0

>  <num_sample>  (1) 
50

>  <b_lp_Chiralities_Consistent>  (1) 
1

>  <r_epik_Charging_Adjusted_Penalty>  (1) 
0

>  <r_epik_Ionization_Penalty>  (1) 
0

>  <r_epik_Ionization_Penalty_Charging>  (1) 
0

>  <r_epik_Ionization_Penalty_Neutral>  (1) 
0

>  <r_epik_State_Penalty>  (1) 
-0

>  <r_glide_ring_energy>  (1) 
0

>  <r_i_docking_score>  (1) 
-5.8731171587095616

>  <r_i_glide_ecoul>  (1) 
-0.47737378171711553

>  <r_i_glide_eff_state_penalty>  (1) 
-0

>  <r_i_glide_einternal>  (1) 
0

>  <r_i_glide_emodel>  (1) 
-26.490456333413846

>  <r_i_glide_emodel_strain>  (1) 
0

>  <r_i_glide_energy>  (1) 
-18.960421049179967

>  <r_i_glide_erotb>  (1) 
0

>  <r_i_glide_esite>  (1) 
0

>  <r_i_glide_evdw>  (1) 
-18.483047267462851

>  <r_i_glide_gscore>  (1) 
-5.8731171587095616

>  <r_i_glide_gscore_strain>  (1) 
0

>  <r_i_glide_hbond>  (1) 
0

>  <r_i_glide_ligand_efficiency>  (1) 
-0.65256857318995132

>  <r_i_glide_ligand_efficiency_ln>  (1) 
-1.8369423281497395

>  <r_i_glide_ligand_efficiency_sa>  (1) 
-1.3573973325244804

>  <r_i_glide_lipo>  (1) 
-2.1854146587786398

>  <r_i_glide_metal>  (1) 
-0

>  <r_i_glide_rewards>  (1) 
-2.6919440693002126

>  <r_lp_Energy>  (1) 
12.927653999999999

>  <r_lp_tautomer_probability>  (1) 
1

>  <s_epik_cmdline>  (1) 
J2VwaWtfcHl0aG9uJywgJy1waHQnLCAnMS4wJywgJy1waCcsICc3LjQnLCAnLXRuJywgJzgnLCAnLW1hJywgJzUwMCcsICctaW1hZScsICc8aW5maWxlLm1hZT4nLCAnLW9tYWUnLCAnPG91dGZpbGUubWFlPic=

>  <s_epik_input>  (1) 
bzFbY0hdW2NIXWMoYzEyKVtjSF1bY0hdW2NIXVtjSF0y

>  <s_glide_docking_method>  (1) 
confgen

>  <s_i_glide_gridfile>  (1) 
gpcr_drd2_6luq_protein_autoprepared_prepared

>  <s_lp_Force_Field>  (1) 
S-OPLS

>  <s_lp_Variant>  (1) 
Pocket2Mol_37-1

>  <s_m_source_file>  (1) 
generated_generic_title2_ligand_Pocket2Mol_2026-06-23_prepared.sdf

>  <GenAI_Model>  (1) 
Pocket2Mol

>  <Protein>  (1) 
generic_title2

$$$$
Pocket2Mol_42
     RDKit          3D

  0  0  0  0  0  0  0  0  0  0999 V3000
M  V30 BEGIN CTAB
M  V30 COUNTS 16 17 0 0 1
M  V30 BEGIN ATOM
M  V30 1 C 12.428163 8.497357 -2.002645 0
M  V30 2 O 12.174736 9.589006 -3.004035 0
M  V30 3 C 11.778666 8.902527 -4.137544 0
M  V30 4 C 11.775410 7.584539 -3.985075 0
M  V30 5 C 11.363568 6.702554 -4.988272 0
M  V30 6 C 11.380927 9.503008 -5.341765 0
M  V30 7 C 10.963598 8.664020 -6.408195 0
M  V30 8 C 10.952163 7.249687 -6.228189 0
M  V30 9 N 12.182687 7.263522 -2.766483 0
M  V30 10 H 13.459788 8.521422 -1.653543 0
M  V30 11 H 11.725346 8.560756 -1.172214 0
M  V30 12 H 11.362784 5.635123 -4.824778 0
M  V30 13 H 11.385198 10.577352 -5.451905 0
M  V30 14 H 10.649506 9.094003 -7.347681 0
M  V30 15 H 10.630490 6.600938 -7.030037 0
M  V30 16 H 11.688279 6.517829 -2.295882 0
M  V30 END ATOM
M  V30 BEGIN BOND
M  V30 1 1 2 1
M  V30 2 1 3 2
M  V30 3 1 4 3
M  V30 4 2 5 4
M  V30 5 2 6 3
M  V30 6 1 7 6
M  V30 7 1 8 5
M  V30 8 2 8 7
M  V30 9 1 9 1
M  V30 10 1 9 4
M  V30 11 1 10 1
M  V30 12 1 11 1
M  V30 13 1 12 5
M  V30 14 1 13 6
M  V30 15 1 14 7
M  V30 16 1 15 8
M  V30 17 1 16 9
M  V30 END BOND
M  V30 END CTAB
M  END
>  <i_epik_Tot_Q>  (1) 
0

>  <i_epik_Tot_abs_Q>  (1) 
0

>  <i_i_glide_confnum>  (1) 
1

>  <i_i_glide_lignum>  (1) 
47

>  <i_i_glide_posenum>  (1) 
125

>  <i_i_glide_rotatable_bonds>  (1) 
0

>  <i_lp_mmshare_version>  (1) 
72125

>  <i_m_source_file_index>  (1) 
43

>  <i_f3d_flags>  (1) 
0

>  <num_sample>  (1) 
50

>  <b_lp_Chiralities_Consistent>  (1) 
1

>  <r_epik_Charging_Adjusted_Penalty>  (1) 
0

>  <r_epik_Ionization_Penalty>  (1) 
3.929707007381515e-06

>  <r_epik_Ionization_Penalty_Charging>  (1) 
0

>  <r_epik_Ionization_Penalty_Neutral>  (1) 
3.929707007381515e-06

>  <r_epik_State_Penalty>  (1) 
-0

>  <r_glide_ring_energy>  (1) 
0

>  <r_i_docking_score>  (1) 
-5.8447933099765885

>  <r_i_glide_ecoul>  (1) 
-1.3421876227398855

>  <r_i_glide_eff_state_penalty>  (1) 
-0

>  <r_i_glide_einternal>  (1) 
0

>  <r_i_glide_emodel>  (1) 
-28.969995418051319

>  <r_i_glide_emodel_strain>  (1) 
0

>  <r_i_glide_energy>  (1) 
-21.443963655226874

>  <r_i_glide_erotb>  (1) 
0

>  <r_i_glide_esite>  (1) 
0

>  <r_i_glide_evdw>  (1) 
-20.101776032486988

>  <r_i_glide_gscore>  (1) 
-5.8447933099765885

>  <r_i_glide_gscore_strain>  (1) 
0

>  <r_i_glide_hbond>  (1) 
0

>  <r_i_glide_ligand_efficiency>  (1) 
-0.64942147888628765

>  <r_i_glide_ligand_efficiency_ln>  (1) 
-1.8280834419351928

>  <r_i_glide_ligand_efficiency_sa>  (1) 
-1.3508511125738107

>  <r_i_glide_lipo>  (1) 
-1.613376364941256

>  <r_i_glide_metal>  (1) 
-0

>  <r_i_glide_rewards>  (1) 
-3.0249999999999999

>  <r_lp_Energy>  (1) 
10.457737999999999

>  <r_lp_tautomer_probability>  (1) 
1

>  <s_epik_Chemistry_Notes>  (1) 
This compound contains an acetal/aminal-like group ( X-CH(R)-Y where X, Y are N, S, or O) that may be acid/base labile, releasing an aldehyde.

>  <s_epik_cmdline>  (1) 
J2VwaWtfcHl0aG9uJywgJy1waHQnLCAnMS4wJywgJy1waCcsICc3LjQnLCAnLXRuJywgJzgnLCAnLW1hJywgJzUwMCcsICctaW1hZScsICc8aW5maWxlLm1hZT4nLCAnLW9tYWUnLCAnPG91dGZpbGUubWFlPic=

>  <s_epik_input>  (1) 
TzFbQ0gyXVtOSF1jKGMxMilbY0hdW2NIXVtjSF1bY0hdMg==

>  <s_glide_docking_method>  (1) 
confgen

>  <s_i_glide_gridfile>  (1) 
gpcr_drd2_6luq_protein_autoprepared_prepared

>  <s_lp_Force_Field>  (1) 
S-OPLS

>  <s_lp_Variant>  (1) 
Pocket2Mol_42-1

>  <s_m_source_file>  (1) 
generated_generic_title2_ligand_Pocket2Mol_2026-06-23_prepared.sdf

>  <GenAI_Model>  (1) 
Pocket2Mol

>  <Protein>  (1) 
generic_title2

$$$$
Pocket2Mol_42
     RDKit          3D

  0  0  0  0  0  0  0  0  0  0999 V3000
M  V30 BEGIN CTAB
M  V30 COUNTS 16 17 0 0 1
M  V30 BEGIN ATOM
M  V30 1 C 10.029175 7.205957 -11.246283 0
M  V30 2 O 11.455698 7.565287 -10.928943 0
M  V30 3 C 11.417123 7.945253 -9.598715 0
M  V30 4 C 10.217611 7.838209 -9.058100 0
M  V30 5 C 9.934408 8.216512 -7.741699 0
M  V30 6 C 12.513329 8.411845 -8.867206 0
M  V30 7 C 12.312006 8.785622 -7.517042 0
M  V30 8 C 11.005915 8.700500 -6.947377 0
M  V30 9 N 9.374292 7.349230 -9.944782 0
M  V30 10 H 9.643742 7.913203 -11.980735 0
M  V30 11 H 9.937731 6.173314 -11.573782 0
M  V30 12 H 8.936423 8.139807 -7.345008 0
M  V30 13 H 13.488812 8.477599 -9.318097 0
M  V30 14 H 13.143123 9.146892 -6.929895 0
M  V30 15 H 10.835950 9.002391 -5.921507 0
M  V30 16 H 8.355314 7.590240 -9.903492 0
M  V30 END ATOM
M  V30 BEGIN BOND
M  V30 1 1 2 1
M  V30 2 1 3 2
M  V30 3 1 4 3
M  V30 4 2 5 4
M  V30 5 2 6 3
M  V30 6 1 7 6
M  V30 7 1 8 5
M  V30 8 2 8 7
M  V30 9 1 9 1
M  V30 10 1 9 4
M  V30 11 1 10 1
M  V30 12 1 11 1
M  V30 13 1 12 5
M  V30 14 1 13 6
M  V30 15 1 14 7
M  V30 16 1 15 8
M  V30 17 1 16 9
M  V30 END BOND
M  V30 END CTAB
M  END
>  <i_epik_Tot_Q>  (1) 
0

>  <i_epik_Tot_abs_Q>  (1) 
0

>  <i_i_glide_confnum>  (1) 
1

>  <i_i_glide_lignum>  (1) 
47

>  <i_i_glide_posenum>  (1) 
350

>  <i_i_glide_rotatable_bonds>  (1) 
0

>  <i_lp_mmshare_version>  (1) 
72125

>  <i_m_source_file_index>  (1) 
43

>  <i_f3d_flags>  (1) 
0

>  <num_sample>  (1) 
50

>  <b_lp_Chiralities_Consistent>  (1) 
1

>  <r_epik_Charging_Adjusted_Penalty>  (1) 
0

>  <r_epik_Ionization_Penalty>  (1) 
3.929707007381515e-06

>  <r_epik_Ionization_Penalty_Charging>  (1) 
0

>  <r_epik_Ionization_Penalty_Neutral>  (1) 
3.929707007381515e-06

>  <r_epik_State_Penalty>  (1) 
-0

>  <r_glide_ring_energy>  (1) 
0

>  <r_i_docking_score>  (1) 
-5.8220947912319314

>  <r_i_glide_ecoul>  (1) 
-8.2576728823284462

>  <r_i_glide_eff_state_penalty>  (1) 
-0

>  <r_i_glide_einternal>  (1) 
0

>  <r_i_glide_emodel>  (1) 
-28.196395027587268

>  <r_i_glide_emodel_strain>  (1) 
0.0013931766694668113

>  <r_i_glide_energy>  (1) 
-20.700984125625975

>  <r_i_glide_erotb>  (1) 
0

>  <r_i_glide_esite>  (1) 
-0.14385190995998906

>  <r_i_glide_evdw>  (1) 
-12.443311243297529

>  <r_i_glide_gscore>  (1) 
-5.8220947912319314

>  <r_i_glide_gscore_strain>  (1) 
0

>  <r_i_glide_hbond>  (1) 
-0.15695505304447832

>  <r_i_glide_ligand_efficiency>  (1) 
-0.64689942124799238

>  <r_i_glide_ligand_efficiency_ln>  (1) 
-1.8209839973401658

>  <r_i_glide_ligand_efficiency_sa>  (1) 
-1.3456050212795885

>  <r_i_glide_lipo>  (1) 
-0.90213800037998837

>  <r_i_glide_metal>  (1) 
-0

>  <r_i_glide_rewards>  (1) 
-2.7583333333333333

>  <r_lp_Energy>  (1) 
10.457737999999999

>  <r_lp_tautomer_probability>  (1) 
1

>  <s_epik_Chemistry_Notes>  (1) 
This compound contains an acetal/aminal-like group ( X-CH(R)-Y where X, Y are N, S, or O) that may be acid/base labile, releasing an aldehyde.

>  <s_epik_cmdline>  (1) 
J2VwaWtfcHl0aG9uJywgJy1waHQnLCAnMS4wJywgJy1waCcsICc3LjQnLCAnLXRuJywgJzgnLCAnLW1hJywgJzUwMCcsICctaW1hZScsICc8aW5maWxlLm1hZT4nLCAnLW9tYWUnLCAnPG91dGZpbGUubWFlPic=

>  <s_epik_input>  (1) 
TzFbQ0gyXVtOSF1jKGMxMilbY0hdW2NIXVtjSF1bY0hdMg==

>  <s_glide_docking_method>  (1) 
confgen

>  <s_i_glide_gridfile>  (1) 
gpcr_drd2_6luq_protein_autoprepared_prepared

>  <s_lp_Force_Field>  (1) 
S-OPLS

>  <s_lp_Variant>  (1) 
Pocket2Mol_42-1

>  <s_m_source_file>  (1) 
generated_generic_title2_ligand_Pocket2Mol_2026-06-23_prepared.sdf

>  <GenAI_Model>  (1) 
Pocket2Mol

>  <Protein>  (1) 
generic_title2

$$$$
Pocket2Mol_42
     RDKit          3D

  0  0  0  0  0  0  0  0  0  0999 V3000
M  V30 BEGIN CTAB
M  V30 COUNTS 16 17 0 0 1
M  V30 BEGIN ATOM
M  V30 1 C 12.518706 8.312761 -2.004203 0
M  V30 2 O 12.209719 7.045602 -2.751505 0
M  V30 3 C 11.775409 7.499747 -3.985271 0
M  V30 4 C 11.775445 8.821081 -4.094489 0
M  V30 5 C 11.407255 9.491472 -5.266820 0
M  V30 6 C 11.375400 6.677436 -5.048163 0
M  V30 7 C 10.975173 7.290671 -6.264301 0
M  V30 8 C 10.994808 8.712415 -6.375117 0
M  V30 9 N 12.175491 9.371111 -2.960003 0
M  V30 10 H 11.883363 8.412478 -1.124144 0
M  V30 11 H 13.573717 8.390234 -1.744527 0
M  V30 12 H 11.427161 10.569795 -5.323050 0
M  V30 13 H 11.376730 5.602770 -4.944905 0
M  V30 14 H 10.662568 6.683439 -7.101919 0
M  V30 15 H 10.695990 9.190243 -7.296126 0
M  V30 16 H 12.804839 10.157829 -3.019363 0
M  V30 END ATOM
M  V30 BEGIN BOND
M  V30 1 1 2 1
M  V30 2 1 3 2
M  V30 3 1 4 3
M  V30 4 2 5 4
M  V30 5 2 6 3
M  V30 6 1 7 6
M  V30 7 1 8 5
M  V30 8 2 8 7
M  V30 9 1 9 1
M  V30 10 1 9 4
M  V30 11 1 10 1
M  V30 12 1 11 1
M  V30 13 1 12 5
M  V30 14 1 13 6
M  V30 15 1 14 7
M  V30 16 1 15 8
M  V30 17 1 16 9
M  V30 END BOND
M  V30 END CTAB
M  END
>  <i_epik_Tot_Q>  (1) 
0

>  <i_epik_Tot_abs_Q>  (1) 
0

>  <i_i_glide_confnum>  (1) 
1

>  <i_i_glide_lignum>  (1) 
47

>  <i_i_glide_posenum>  (1) 
300

>  <i_i_glide_rotatable_bonds>  (1) 
0

>  <i_lp_mmshare_version>  (1) 
72125

>  <i_m_source_file_index>  (1) 
43

>  <i_f3d_flags>  (1) 
0

>  <num_sample>  (1) 
50

>  <b_lp_Chiralities_Consistent>  (1) 
1

>  <r_epik_Charging_Adjusted_Penalty>  (1) 
0

>  <r_epik_Ionization_Penalty>  (1) 
3.929707007381515e-06

>  <r_epik_Ionization_Penalty_Charging>  (1) 
0

>  <r_epik_Ionization_Penalty_Neutral>  (1) 
3.929707007381515e-06

>  <r_epik_State_Penalty>  (1) 
-0

>  <r_glide_ring_energy>  (1) 
0

>  <r_i_docking_score>  (1) 
-5.8072267364074976

>  <r_i_glide_ecoul>  (1) 
-0.34992415724526243

>  <r_i_glide_eff_state_penalty>  (1) 
-0

>  <r_i_glide_einternal>  (1) 
0

>  <r_i_glide_emodel>  (1) 
-27.262552105269982

>  <r_i_glide_emodel_strain>  (1) 
0

>  <r_i_glide_energy>  (1) 
-19.78489283586098

>  <r_i_glide_erotb>  (1) 
0

>  <r_i_glide_esite>  (1) 
0

>  <r_i_glide_evdw>  (1) 
-19.434968678615718

>  <r_i_glide_gscore>  (1) 
-5.8072267364074976

>  <r_i_glide_gscore_strain>  (1) 
0

>  <r_i_glide_hbond>  (1) 
-0.060902929953494354

>  <r_i_glide_ligand_efficiency>  (1) 
-0.64524741515638862

>  <r_i_glide_ligand_efficiency_ln>  (1) 
-1.8163336969109038

>  <r_i_glide_ligand_efficiency_sa>  (1) 
-1.3421687101328601

>  <r_i_glide_lipo>  (1) 
-1.6054200822697611

>  <r_i_glide_metal>  (1) 
-0

>  <r_i_glide_rewards>  (1) 
-3.1166666666666667

>  <r_lp_Energy>  (1) 
10.457737999999999

>  <r_lp_tautomer_probability>  (1) 
1

>  <s_epik_Chemistry_Notes>  (1) 
This compound contains an acetal/aminal-like group ( X-CH(R)-Y where X, Y are N, S, or O) that may be acid/base labile, releasing an aldehyde.

>  <s_epik_cmdline>  (1) 
J2VwaWtfcHl0aG9uJywgJy1waHQnLCAnMS4wJywgJy1waCcsICc3LjQnLCAnLXRuJywgJzgnLCAnLW1hJywgJzUwMCcsICctaW1hZScsICc8aW5maWxlLm1hZT4nLCAnLW9tYWUnLCAnPG91dGZpbGUubWFlPic=

>  <s_epik_input>  (1) 
TzFbQ0gyXVtOSF1jKGMxMilbY0hdW2NIXVtjSF1bY0hdMg==

>  <s_glide_docking_method>  (1) 
confgen

>  <s_i_glide_gridfile>  (1) 
gpcr_drd2_6luq_protein_autoprepared_prepared

>  <s_lp_Force_Field>  (1) 
S-OPLS

>  <s_lp_Variant>  (1) 
Pocket2Mol_42-1

>  <s_m_source_file>  (1) 
generated_generic_title2_ligand_Pocket2Mol_2026-06-23_prepared.sdf

>  <GenAI_Model>  (1) 
Pocket2Mol

>  <Protein>  (1) 
generic_title2

$$$$
Pocket2Mol_40
     RDKit          3D

  0  0  0  0  0  0  0  0  0  0999 V3000
M  V30 BEGIN CTAB
M  V30 COUNTS 15 16 0 0 1
M  V30 BEGIN ATOM
M  V30 1 C 12.010482 7.184831 -2.508636 0
M  V30 2 O 11.406459 6.390227 -3.567290 0
M  V30 3 C 11.375410 7.188656 -4.670977 0
M  V30 4 C 11.775410 8.492422 -4.518377 0
M  V30 5 C 11.783513 9.385078 -5.602251 0
M  V30 6 C 10.958537 6.711031 -5.924569 0
M  V30 7 C 10.958469 7.582868 -7.033197 0
M  V30 8 S 12.263217 8.969468 -2.950745 0
M  V30 9 C 11.375410 8.923867 -6.872537 0
M  V30 10 H 11.385602 7.123339 -1.617370 0
M  V30 11 H 12.975410 6.745218 -2.253943 0
M  V30 12 H 12.101940 10.407578 -5.467935 0
M  V30 13 H 10.644812 5.685818 -6.039788 0
M  V30 14 H 10.641605 7.226067 -8.002653 0
M  V30 15 H 11.379385 9.590227 -7.718919 0
M  V30 END ATOM
M  V30 BEGIN BOND
M  V30 1 1 2 1
M  V30 2 1 3 2
M  V30 3 1 4 3
M  V30 4 2 5 4
M  V30 5 2 6 3
M  V30 6 1 7 6
M  V30 7 1 8 1
M  V30 8 1 8 4
M  V30 9 1 9 5
M  V30 10 2 9 7
M  V30 11 1 10 1
M  V30 12 1 11 1
M  V30 13 1 12 5
M  V30 14 1 13 6
M  V30 15 1 14 7
M  V30 16 1 15 9
M  V30 END BOND
M  V30 END CTAB
M  END
>  <i_epik_Tot_Q>  (1) 
0

>  <i_epik_Tot_abs_Q>  (1) 
0

>  <i_i_glide_confnum>  (1) 
1

>  <i_i_glide_lignum>  (1) 
45

>  <i_i_glide_posenum>  (1) 
153

>  <i_i_glide_rotatable_bonds>  (1) 
0

>  <i_lp_mmshare_version>  (1) 
72125

>  <i_m_source_file_index>  (1) 
41

>  <i_f3d_flags>  (1) 
0

>  <num_sample>  (1) 
50

>  <b_lp_Chiralities_Consistent>  (1) 
1

>  <r_epik_Charging_Adjusted_Penalty>  (1) 
0

>  <r_epik_Ionization_Penalty>  (1) 
0

>  <r_epik_Ionization_Penalty_Charging>  (1) 
0

>  <r_epik_Ionization_Penalty_Neutral>  (1) 
0

>  <r_epik_State_Penalty>  (1) 
-0

>  <r_glide_ring_energy>  (1) 
0

>  <r_i_docking_score>  (1) 
-5.791661755467163

>  <r_i_glide_ecoul>  (1) 
0.46400619381150759

>  <r_i_glide_eff_state_penalty>  (1) 
-0

>  <r_i_glide_einternal>  (1) 
0

>  <r_i_glide_emodel>  (1) 
-28.328068707463821

>  <r_i_glide_emodel_strain>  (1) 
0

>  <r_i_glide_energy>  (1) 
-20.28640145664767

>  <r_i_glide_erotb>  (1) 
0

>  <r_i_glide_esite>  (1) 
0

>  <r_i_glide_evdw>  (1) 
-20.750407650459177

>  <r_i_glide_gscore>  (1) 
-5.791661755467163

>  <r_i_glide_gscore_strain>  (1) 
0

>  <r_i_glide_hbond>  (1) 
0

>  <r_i_glide_ligand_efficiency>  (1) 
-0.64351797282968481

>  <r_i_glide_ligand_efficiency_ln>  (1) 
-1.8114654180134286

>  <r_i_glide_ligand_efficiency_sa>  (1) 
-1.3385713251261824

>  <r_i_glide_lipo>  (1) 
-2.063145569554421

>  <r_i_glide_metal>  (1) 
-0

>  <r_i_glide_rewards>  (1) 
-2.7605967324615088

>  <r_lp_Energy>  (1) 
5.8399909999999995

>  <r_lp_tautomer_probability>  (1) 
1

>  <s_epik_Chemistry_Notes>  (1) 
This compound contains an acetal/aminal-like group ( X-CH(R)-Y where X, Y are N, S, or O) that may be acid/base labile, releasing an aldehyde.

>  <s_epik_cmdline>  (1) 
J2VwaWtfcHl0aG9uJywgJy1waHQnLCAnMS4wJywgJy1waCcsICc3LjQnLCAnLXRuJywgJzgnLCAnLW1hJywgJzUwMCcsICctaW1hZScsICc8aW5maWxlLm1hZT4nLCAnLW9tYWUnLCAnPG91dGZpbGUubWFlPic=

>  <s_epik_input>  (1) 
TzFbQ0gyXVNjKGMxMilbY0hdW2NIXVtjSF1bY0hdMg==

>  <s_glide_docking_method>  (1) 
confgen

>  <s_i_glide_gridfile>  (1) 
gpcr_drd2_6luq_protein_autoprepared_prepared

>  <s_lp_Force_Field>  (1) 
S-OPLS

>  <s_lp_Variant>  (1) 
Pocket2Mol_40-1

>  <s_m_source_file>  (1) 
generated_generic_title2_ligand_Pocket2Mol_2026-06-23_prepared.sdf

>  <GenAI_Model>  (1) 
Pocket2Mol

>  <Protein>  (1) 
generic_title2

$$$$
Pocket2Mol_42
     RDKit          3D

  0  0  0  0  0  0  0  0  0  0999 V3000
M  V30 BEGIN CTAB
M  V30 COUNTS 16 17 0 0 1
M  V30 BEGIN ATOM
M  V30 1 C 11.073596 9.145022 -6.519453 0
M  V30 2 O 11.654613 9.863070 -5.333014 0
M  V30 3 C 11.776761 8.862233 -4.385025 0
M  V30 4 C 11.375410 7.674148 -4.812433 0
M  V30 5 C 11.375410 6.534838 -4.005180 0
M  V30 6 C 12.252155 9.047058 -3.078403 0
M  V30 7 C 12.292345 7.928878 -2.208223 0
M  V30 8 C 11.846238 6.659680 -2.675034 0
M  V30 9 N 10.974757 7.750995 -6.069979 0
M  V30 10 H 10.078187 9.512642 -6.765710 0
M  V30 11 H 11.740018 9.200329 -7.381059 0
M  V30 12 H 11.029649 5.590227 -4.385027 0
M  V30 13 H 12.575408 10.014715 -2.741022 0
M  V30 14 H 12.653197 8.041120 -1.196493 0
M  V30 15 H 11.865123 5.800049 -2.020737 0
M  V30 16 H 10.135686 7.243392 -6.319871 0
M  V30 END ATOM
M  V30 BEGIN BOND
M  V30 1 1 2 1
M  V30 2 1 3 2
M  V30 3 1 4 3
M  V30 4 2 5 4
M  V30 5 2 6 3
M  V30 6 1 7 6
M  V30 7 1 8 5
M  V30 8 2 8 7
M  V30 9 1 9 1
M  V30 10 1 9 4
M  V30 11 1 10 1
M  V30 12 1 11 1
M  V30 13 1 12 5
M  V30 14 1 13 6
M  V30 15 1 14 7
M  V30 16 1 15 8
M  V30 17 1 16 9
M  V30 END BOND
M  V30 END CTAB
M  END
>  <i_epik_Tot_Q>  (1) 
0

>  <i_epik_Tot_abs_Q>  (1) 
0

>  <i_i_glide_confnum>  (1) 
1

>  <i_i_glide_lignum>  (1) 
47

>  <i_i_glide_posenum>  (1) 
32

>  <i_i_glide_rotatable_bonds>  (1) 
0

>  <i_lp_mmshare_version>  (1) 
72125

>  <i_m_source_file_index>  (1) 
43

>  <i_f3d_flags>  (1) 
0

>  <num_sample>  (1) 
50

>  <b_lp_Chiralities_Consistent>  (1) 
1

>  <r_epik_Charging_Adjusted_Penalty>  (1) 
0

>  <r_epik_Ionization_Penalty>  (1) 
3.929707007381515e-06

>  <r_epik_Ionization_Penalty_Charging>  (1) 
0

>  <r_epik_Ionization_Penalty_Neutral>  (1) 
3.929707007381515e-06

>  <r_epik_State_Penalty>  (1) 
-0

>  <r_glide_ring_energy>  (1) 
0

>  <r_i_docking_score>  (1) 
-5.7853170119611592

>  <r_i_glide_ecoul>  (1) 
-1.7012542473336409

>  <r_i_glide_eff_state_penalty>  (1) 
-0

>  <r_i_glide_einternal>  (1) 
0

>  <r_i_glide_emodel>  (1) 
-27.463860066039292

>  <r_i_glide_emodel_strain>  (1) 
0

>  <r_i_glide_energy>  (1) 
-20.01441279205131

>  <r_i_glide_erotb>  (1) 
0

>  <r_i_glide_esite>  (1) 
0

>  <r_i_glide_evdw>  (1) 
-18.31315854471767

>  <r_i_glide_gscore>  (1) 
-5.7853170119611592

>  <r_i_glide_gscore_strain>  (1) 
0

>  <r_i_glide_hbond>  (1) 
0

>  <r_i_glide_ligand_efficiency>  (1) 
-0.64281300132901764

>  <r_i_glide_ligand_efficiency_ln>  (1) 
-1.8094809645124208

>  <r_i_glide_ligand_efficiency_sa>  (1) 
-1.337104925311932

>  <r_i_glide_lipo>  (1) 
-1.69043324107204

>  <r_i_glide_metal>  (1) 
-0

>  <r_i_glide_rewards>  (1) 
-2.9240377065531895

>  <r_lp_Energy>  (1) 
10.457737999999999

>  <r_lp_tautomer_probability>  (1) 
1

>  <s_epik_Chemistry_Notes>  (1) 
This compound contains an acetal/aminal-like group ( X-CH(R)-Y where X, Y are N, S, or O) that may be acid/base labile, releasing an aldehyde.

>  <s_epik_cmdline>  (1) 
J2VwaWtfcHl0aG9uJywgJy1waHQnLCAnMS4wJywgJy1waCcsICc3LjQnLCAnLXRuJywgJzgnLCAnLW1hJywgJzUwMCcsICctaW1hZScsICc8aW5maWxlLm1hZT4nLCAnLW9tYWUnLCAnPG91dGZpbGUubWFlPic=

>  <s_epik_input>  (1) 
TzFbQ0gyXVtOSF1jKGMxMilbY0hdW2NIXVtjSF1bY0hdMg==

>  <s_glide_docking_method>  (1) 
confgen

>  <s_i_glide_gridfile>  (1) 
gpcr_drd2_6luq_protein_autoprepared_prepared

>  <s_lp_Force_Field>  (1) 
S-OPLS

>  <s_lp_Variant>  (1) 
Pocket2Mol_42-1

>  <s_m_source_file>  (1) 
generated_generic_title2_ligand_Pocket2Mol_2026-06-23_prepared.sdf

>  <GenAI_Model>  (1) 
Pocket2Mol

>  <Protein>  (1) 
generic_title2

$$$$
Pocket2Mol_31
     RDKit          3D

  0  0  0  0  0  0  0  0  0  0999 V3000
M  V30 BEGIN CTAB
M  V30 COUNTS 17 18 0 0 1
M  V30 BEGIN ATOM
M  V30 1 C 10.647408 7.257369 -7.070144 0
M  V30 2 O 10.971367 6.364757 -5.938958 0
M  V30 3 C 11.375406 7.236053 -4.993506 0
M  V30 4 C 11.375411 8.534395 -5.359023 0
M  V30 5 C 11.775298 9.546514 -4.473197 0
M  V30 6 C 10.932824 8.790227 -6.732152 0
M  V30 7 C 11.775399 6.839050 -3.704841 0
M  V30 8 C 12.185290 7.826523 -2.780563 0
M  V30 9 C 12.184368 9.190278 -3.167271 0
M  V30 10 H 11.222970 6.950153 -7.944046 0
M  V30 11 H 9.595275 7.121293 -7.324441 0
M  V30 12 H 11.768118 10.579689 -4.785165 0
M  V30 13 H 10.030337 9.397607 -6.768168 0
M  V30 14 H 11.726001 9.221263 -7.343143 0
M  V30 15 H 11.769483 5.795863 -3.426150 0
M  V30 16 H 12.496391 7.543721 -1.785891 0
M  V30 17 H 12.494253 9.953115 -2.467962 0
M  V30 END ATOM
M  V30 BEGIN BOND
M  V30 1 1 2 1
M  V30 2 1 3 2
M  V30 3 1 4 3
M  V30 4 2 5 4
M  V30 5 1 6 1
M  V30 6 1 6 4
M  V30 7 2 7 3
M  V30 8 1 8 7
M  V30 9 1 9 5
M  V30 10 2 9 8
M  V30 11 1 10 1
M  V30 12 1 11 1
M  V30 13 1 12 5
M  V30 14 1 13 6
M  V30 15 1 14 6
M  V30 16 1 15 7
M  V30 17 1 16 8
M  V30 18 1 17 9
M  V30 END BOND
M  V30 END CTAB
M  END
>  <i_epik_Tot_Q>  (1) 
0

>  <i_epik_Tot_abs_Q>  (1) 
0

>  <i_i_glide_confnum>  (1) 
1

>  <i_i_glide_lignum>  (1) 
35

>  <i_i_glide_posenum>  (1) 
64

>  <i_i_glide_rotatable_bonds>  (1) 
0

>  <i_lp_mmshare_version>  (1) 
72125

>  <i_m_source_file_index>  (1) 
32

>  <i_f3d_flags>  (1) 
0

>  <num_sample>  (1) 
50

>  <b_lp_Chiralities_Consistent>  (1) 
1

>  <r_epik_Charging_Adjusted_Penalty>  (1) 
0

>  <r_epik_Ionization_Penalty>  (1) 
0

>  <r_epik_Ionization_Penalty_Charging>  (1) 
0

>  <r_epik_Ionization_Penalty_Neutral>  (1) 
0

>  <r_epik_State_Penalty>  (1) 
-0

>  <r_glide_ring_energy>  (1) 
0

>  <r_i_docking_score>  (1) 
-5.7504588014244291

>  <r_i_glide_ecoul>  (1) 
-0.28784078996914558

>  <r_i_glide_eff_state_penalty>  (1) 
-0

>  <r_i_glide_einternal>  (1) 
0

>  <r_i_glide_emodel>  (1) 
-26.661341958685764

>  <r_i_glide_emodel_strain>  (1) 
0

>  <r_i_glide_energy>  (1) 
-19.235495591466115

>  <r_i_glide_erotb>  (1) 
0

>  <r_i_glide_esite>  (1) 
0

>  <r_i_glide_evdw>  (1) 
-18.94765480149697

>  <r_i_glide_gscore>  (1) 
-5.7504588014244291

>  <r_i_glide_gscore_strain>  (1) 
0

>  <r_i_glide_hbond>  (1) 
0

>  <r_i_glide_ligand_efficiency>  (1) 
-0.63893986682493653

>  <r_i_glide_ligand_efficiency_ln>  (1) 
-1.7985783176405603

>  <r_i_glide_ligand_efficiency_sa>  (1) 
-1.3290484808854888

>  <r_i_glide_lipo>  (1) 
-2.0957852130043406

>  <r_i_glide_metal>  (1) 
-0

>  <r_i_glide_rewards>  (1) 
-2.6641147298498682

>  <r_lp_Energy>  (1) 
11.954839999999999

>  <r_lp_tautomer_probability>  (1) 
1

>  <s_epik_cmdline>  (1) 
J2VwaWtfcHl0aG9uJywgJy1waHQnLCAnMS4wJywgJy1waCcsICc3LjQnLCAnLXRuJywgJzgnLCAnLW1hJywgJzUwMCcsICctaW1hZScsICc8aW5maWxlLm1hZT4nLCAnLW9tYWUnLCAnPG91dGZpbGUubWFlPic=

>  <s_epik_input>  (1) 
TzFbQ0gyXVtDSDJdYyhjMTIpW2NIXVtjSF1bY0hdW2NIXTI=

>  <s_glide_docking_method>  (1) 
confgen

>  <s_i_glide_gridfile>  (1) 
gpcr_drd2_6luq_protein_autoprepared_prepared

>  <s_lp_Force_Field>  (1) 
S-OPLS

>  <s_lp_Variant>  (1) 
Pocket2Mol_31-1

>  <s_m_source_file>  (1) 
generated_generic_title2_ligand_Pocket2Mol_2026-06-23_prepared.sdf

>  <GenAI_Model>  (1) 
Pocket2Mol

>  <Protein>  (1) 
generic_title2

$$$$
Pocket2Mol_38
     RDKit          3D

  0  0  0  0  0  0  0  0  0  0999 V3000
M  V30 BEGIN CTAB
M  V30 COUNTS 14 15 0 0 1
M  V30 BEGIN ATOM
M  V30 1 C 12.474903 8.414671 -2.063416 0
M  V30 2 O 12.196803 9.451484 -2.936084 0
M  V30 3 C 11.775412 8.882447 -4.110980 0
M  V30 4 C 11.775410 7.487519 -3.985021 0
M  V30 5 C 11.351093 6.737721 -5.128644 0
M  V30 6 C 11.388099 9.532321 -5.268059 0
M  V30 7 C 12.227356 7.190230 -2.659546 0
M  V30 8 N 10.975410 7.391241 -6.274838 0
M  V30 9 C 10.989171 8.741674 -6.338871 0
M  V30 10 H 12.827010 8.705018 -1.084295 0
M  V30 11 H 11.317405 5.658645 -5.125309 0
M  V30 12 H 11.392585 10.609185 -5.335596 0
M  V30 13 H 12.347199 6.207468 -2.224758 0
M  V30 14 H 10.673361 9.188075 -7.269768 0
M  V30 END ATOM
M  V30 BEGIN BOND
M  V30 1 1 2 1
M  V30 2 1 3 2
M  V30 3 2 4 3
M  V30 4 1 5 4
M  V30 5 1 6 3
M  V30 6 2 7 1
M  V30 7 1 7 4
M  V30 8 2 8 5
M  V30 9 2 9 6
M  V30 10 1 9 8
M  V30 11 1 10 1
M  V30 12 1 11 5
M  V30 13 1 12 6
M  V30 14 1 13 7
M  V30 15 1 14 9
M  V30 END BOND
M  V30 END CTAB
M  END
>  <i_epik_Tot_Q>  (1) 
0

>  <i_epik_Tot_abs_Q>  (1) 
0

>  <i_i_glide_confnum>  (1) 
1

>  <i_i_glide_lignum>  (1) 
43

>  <i_i_glide_posenum>  (1) 
12

>  <i_i_glide_rotatable_bonds>  (1) 
0

>  <i_lp_mmshare_version>  (1) 
72125

>  <i_m_source_file_index>  (1) 
39

>  <i_f3d_flags>  (1) 
0

>  <num_sample>  (1) 
50

>  <b_lp_Chiralities_Consistent>  (1) 
1

>  <r_epik_Charging_Adjusted_Penalty>  (1) 
0

>  <r_epik_Ionization_Penalty>  (1) 
0.00075511756769225586

>  <r_epik_Ionization_Penalty_Charging>  (1) 
0

>  <r_epik_Ionization_Penalty_Neutral>  (1) 
0.00075511756769225586

>  <r_epik_State_Penalty>  (1) 
-0

>  <r_glide_ring_energy>  (1) 
0

>  <r_i_docking_score>  (1) 
-5.7287211268105365

>  <r_i_glide_ecoul>  (1) 
-0.21537030141611285

>  <r_i_glide_eff_state_penalty>  (1) 
-0

>  <r_i_glide_einternal>  (1) 
0

>  <r_i_glide_emodel>  (1) 
-28.159549101461501

>  <r_i_glide_emodel_strain>  (1) 
0

>  <r_i_glide_energy>  (1) 
-20.603433512582619

>  <r_i_glide_erotb>  (1) 
0

>  <r_i_glide_esite>  (1) 
0

>  <r_i_glide_evdw>  (1) 
-20.388063211166507

>  <r_i_glide_gscore>  (1) 
-5.7287211268105365

>  <r_i_glide_gscore_strain>  (1) 
0

>  <r_i_glide_hbond>  (1) 
0

>  <r_i_glide_ligand_efficiency>  (1) 
-0.63652456964561521

>  <r_i_glide_ligand_efficiency_ln>  (1) 
-1.7917793974871303

>  <r_i_glide_ligand_efficiency_sa>  (1) 
-1.3240244602949194

>  <r_i_glide_lipo>  (1) 
-2.0186790877064609

>  <r_i_glide_metal>  (1) 
-0

>  <r_i_glide_rewards>  (1) 
-2.6583333333333332

>  <r_lp_Energy>  (1) 
12.667646999999999

>  <r_lp_tautomer_probability>  (1) 
1

>  <s_epik_cmdline>  (1) 
J2VwaWtfcHl0aG9uJywgJy1waHQnLCAnMS4wJywgJy1waCcsICc3LjQnLCAnLXRuJywgJzgnLCAnLW1hJywgJzUwMCcsICctaW1hZScsICc8aW5maWxlLm1hZT4nLCAnLW9tYWUnLCAnPG91dGZpbGUubWFlPic=

>  <s_epik_input>  (1) 
bzFbY0hdW2NIXWMoYzEyKVtjSF1uW2NIXVtjSF0y

>  <s_glide_docking_method>  (1) 
confgen

>  <s_i_glide_gridfile>  (1) 
gpcr_drd2_6luq_protein_autoprepared_prepared

>  <s_lp_Force_Field>  (1) 
S-OPLS

>  <s_lp_Variant>  (1) 
Pocket2Mol_38-1

>  <s_m_source_file>  (1) 
generated_generic_title2_ligand_Pocket2Mol_2026-06-23_prepared.sdf

>  <GenAI_Model>  (1) 
Pocket2Mol

>  <Protein>  (1) 
generic_title2

$$$$
Pocket2Mol_38
     RDKit          3D

  0  0  0  0  0  0  0  0  0  0999 V3000
M  V30 BEGIN CTAB
M  V30 COUNTS 14 15 0 0 1
M  V30 BEGIN ATOM
M  V30 1 C 11.161640 8.994462 -6.575667 0
M  V30 2 O 10.996752 7.691316 -6.151192 0
M  V30 3 C 11.375397 7.650526 -4.832740 0
M  V30 4 C 11.776231 8.924044 -4.416749 0
M  V30 5 C 12.203610 9.051243 -3.053863 0
M  V30 6 C 11.375408 6.554807 -3.996322 0
M  V30 7 C 11.634872 9.791396 -5.547327 0
M  V30 8 N 12.206072 7.953957 -2.230612 0
M  V30 9 C 11.802726 6.748044 -2.688768 0
M  V30 10 H 10.904209 9.190227 -7.607014 0
M  V30 11 H 12.531884 9.990262 -2.641976 0
M  V30 12 H 11.053466 5.590222 -4.345525 0
M  V30 13 H 11.854802 10.847432 -5.581701 0
M  V30 14 H 11.824921 5.927890 -1.986258 0
M  V30 END ATOM
M  V30 BEGIN BOND
M  V30 1 1 2 1
M  V30 2 1 3 2
M  V30 3 2 4 3
M  V30 4 1 5 4
M  V30 5 1 6 3
M  V30 6 2 7 1
M  V30 7 1 7 4
M  V30 8 2 8 5
M  V30 9 2 9 6
M  V30 10 1 9 8
M  V30 11 1 10 1
M  V30 12 1 11 5
M  V30 13 1 12 6
M  V30 14 1 13 7
M  V30 15 1 14 9
M  V30 END BOND
M  V30 END CTAB
M  END
>  <i_epik_Tot_Q>  (1) 
0

>  <i_epik_Tot_abs_Q>  (1) 
0

>  <i_i_glide_confnum>  (1) 
1

>  <i_i_glide_lignum>  (1) 
43

>  <i_i_glide_posenum>  (1) 
11

>  <i_i_glide_rotatable_bonds>  (1) 
0

>  <i_lp_mmshare_version>  (1) 
72125

>  <i_m_source_file_index>  (1) 
39

>  <i_f3d_flags>  (1) 
0

>  <num_sample>  (1) 
50

>  <b_lp_Chiralities_Consistent>  (1) 
1

>  <r_epik_Charging_Adjusted_Penalty>  (1) 
0

>  <r_epik_Ionization_Penalty>  (1) 
0.00075511756769225586

>  <r_epik_Ionization_Penalty_Charging>  (1) 
0

>  <r_epik_Ionization_Penalty_Neutral>  (1) 
0.00075511756769225586

>  <r_epik_State_Penalty>  (1) 
-0

>  <r_glide_ring_energy>  (1) 
0

>  <r_i_docking_score>  (1) 
-5.6636614553219049

>  <r_i_glide_ecoul>  (1) 
-1.083807960265841

>  <r_i_glide_eff_state_penalty>  (1) 
-0

>  <r_i_glide_einternal>  (1) 
0

>  <r_i_glide_emodel>  (1) 
-27.843931347049178

>  <r_i_glide_emodel_strain>  (1) 
0

>  <r_i_glide_energy>  (1) 
-20.373628697404133

>  <r_i_glide_erotb>  (1) 
0

>  <r_i_glide_esite>  (1) 
0

>  <r_i_glide_evdw>  (1) 
-19.289820737138292

>  <r_i_glide_gscore>  (1) 
-5.6636614553219049

>  <r_i_glide_gscore_strain>  (1) 
0

>  <r_i_glide_hbond>  (1) 
0

>  <r_i_glide_ligand_efficiency>  (1) 
-0.62929571725798938

>  <r_i_glide_ligand_efficiency_ln>  (1) 
-1.7714306012374668

>  <r_i_glide_ligand_efficiency_sa>  (1) 
-1.3089878413841889

>  <r_i_glide_lipo>  (1) 
-1.9865992244251149

>  <r_i_glide_metal>  (1) 
-0

>  <r_i_glide_rewards>  (1) 
-2.5499999999999998

>  <r_lp_Energy>  (1) 
12.667646999999999

>  <r_lp_tautomer_probability>  (1) 
1

>  <s_epik_cmdline>  (1) 
J2VwaWtfcHl0aG9uJywgJy1waHQnLCAnMS4wJywgJy1waCcsICc3LjQnLCAnLXRuJywgJzgnLCAnLW1hJywgJzUwMCcsICctaW1hZScsICc8aW5maWxlLm1hZT4nLCAnLW9tYWUnLCAnPG91dGZpbGUubWFlPic=

>  <s_epik_input>  (1) 
bzFbY0hdW2NIXWMoYzEyKVtjSF1uW2NIXVtjSF0y

>  <s_glide_docking_method>  (1) 
confgen

>  <s_i_glide_gridfile>  (1) 
gpcr_drd2_6luq_protein_autoprepared_prepared

>  <s_lp_Force_Field>  (1) 
S-OPLS

>  <s_lp_Variant>  (1) 
Pocket2Mol_38-1

>  <s_m_source_file>  (1) 
generated_generic_title2_ligand_Pocket2Mol_2026-06-23_prepared.sdf

>  <GenAI_Model>  (1) 
Pocket2Mol

>  <Protein>  (1) 
generic_title2

$$$$
Pocket2Mol_38
     RDKit          3D

  0  0  0  0  0  0  0  0  0  0999 V3000
M  V30 BEGIN CTAB
M  V30 COUNTS 14 15 0 0 1
M  V30 BEGIN ATOM
M  V30 1 C 12.175420 7.164400 -2.605993 0
M  V30 2 O 11.621830 6.390227 -3.609999 0
M  V30 3 C 11.375410 7.226710 -4.670901 0
M  V30 4 C 11.775410 8.530292 -4.344976 0
M  V30 5 C 11.584514 9.531919 -5.349333 0
M  V30 6 C 10.819832 6.895394 -5.891488 0
M  V30 7 C 12.292869 8.484193 -3.009253 0
M  V30 8 N 11.036421 9.190227 -6.557891 0
M  V30 9 C 10.662216 7.916749 -6.817519 0
M  V30 10 H 12.425185 6.643552 -1.692878 0
M  V30 11 H 11.857364 10.563512 -5.189473 0
M  V30 12 H 10.516490 5.885246 -6.113956 0
M  V30 13 H 12.688586 9.315159 -2.440861 0
M  V30 14 H 10.230341 7.722823 -7.788985 0
M  V30 END ATOM
M  V30 BEGIN BOND
M  V30 1 1 2 1
M  V30 2 1 3 2
M  V30 3 2 4 3
M  V30 4 1 5 4
M  V30 5 1 6 3
M  V30 6 2 7 1
M  V30 7 1 7 4
M  V30 8 2 8 5
M  V30 9 2 9 6
M  V30 10 1 9 8
M  V30 11 1 10 1
M  V30 12 1 11 5
M  V30 13 1 12 6
M  V30 14 1 13 7
M  V30 15 1 14 9
M  V30 END BOND
M  V30 END CTAB
M  END
>  <i_epik_Tot_Q>  (1) 
0

>  <i_epik_Tot_abs_Q>  (1) 
0

>  <i_i_glide_confnum>  (1) 
1

>  <i_i_glide_lignum>  (1) 
43

>  <i_i_glide_posenum>  (1) 
101

>  <i_i_glide_rotatable_bonds>  (1) 
0

>  <i_lp_mmshare_version>  (1) 
72125

>  <i_m_source_file_index>  (1) 
39

>  <i_f3d_flags>  (1) 
0

>  <num_sample>  (1) 
50

>  <b_lp_Chiralities_Consistent>  (1) 
1

>  <r_epik_Charging_Adjusted_Penalty>  (1) 
0

>  <r_epik_Ionization_Penalty>  (1) 
0.00075511756769225586

>  <r_epik_Ionization_Penalty_Charging>  (1) 
0

>  <r_epik_Ionization_Penalty_Neutral>  (1) 
0.00075511756769225586

>  <r_epik_State_Penalty>  (1) 
-0

>  <r_glide_ring_energy>  (1) 
0

>  <r_i_docking_score>  (1) 
-5.6293026667583836

>  <r_i_glide_ecoul>  (1) 
-0.66953753734858423

>  <r_i_glide_eff_state_penalty>  (1) 
-0

>  <r_i_glide_einternal>  (1) 
0

>  <r_i_glide_emodel>  (1) 
-27.835455168267565

>  <r_i_glide_emodel_strain>  (1) 
0

>  <r_i_glide_energy>  (1) 
-20.410471355433195

>  <r_i_glide_erotb>  (1) 
0

>  <r_i_glide_esite>  (1) 
0

>  <r_i_glide_evdw>  (1) 
-19.74093381808461

>  <r_i_glide_gscore>  (1) 
-5.6293026667583836

>  <r_i_glide_gscore_strain>  (1) 
0

>  <r_i_glide_hbond>  (1) 
0

>  <r_i_glide_ligand_efficiency>  (1) 
-0.62547807408426481

>  <r_i_glide_ligand_efficiency_ln>  (1) 
-1.7606841592117559

>  <r_i_glide_ligand_efficiency_sa>  (1) 
-1.3010468235763399

>  <r_i_glide_lipo>  (1) 
-1.8377278362603626

>  <r_i_glide_metal>  (1) 
-0

>  <r_i_glide_rewards>  (1) 
-2.7040975089915031

>  <r_lp_Energy>  (1) 
12.667646999999999

>  <r_lp_tautomer_probability>  (1) 
1

>  <s_epik_cmdline>  (1) 
J2VwaWtfcHl0aG9uJywgJy1waHQnLCAnMS4wJywgJy1waCcsICc3LjQnLCAnLXRuJywgJzgnLCAnLW1hJywgJzUwMCcsICctaW1hZScsICc8aW5maWxlLm1hZT4nLCAnLW9tYWUnLCAnPG91dGZpbGUubWFlPic=

>  <s_epik_input>  (1) 
bzFbY0hdW2NIXWMoYzEyKVtjSF1uW2NIXVtjSF0y

>  <s_glide_docking_method>  (1) 
confgen

>  <s_i_glide_gridfile>  (1) 
gpcr_drd2_6luq_protein_autoprepared_prepared

>  <s_lp_Force_Field>  (1) 
S-OPLS

>  <s_lp_Variant>  (1) 
Pocket2Mol_38-1

>  <s_m_source_file>  (1) 
generated_generic_title2_ligand_Pocket2Mol_2026-06-23_prepared.sdf

>  <GenAI_Model>  (1) 
Pocket2Mol

>  <Protein>  (1) 
generic_title2

$$$$
Pocket2Mol_38
     RDKit          3D

  0  0  0  0  0  0  0  0  0  0999 V3000
M  V30 BEGIN CTAB
M  V30 COUNTS 14 15 0 0 1
M  V30 BEGIN ATOM
M  V30 1 C 9.775409 7.614496 -7.570540 0
M  V30 2 O 10.374940 8.790227 -7.169690 0
M  V30 3 C 10.988505 8.540083 -5.968209 0
M  V30 4 C 10.792909 7.204124 -5.611749 0
M  V30 5 C 11.375410 6.773696 -4.375833 0
M  V30 6 C 11.701479 9.431201 -5.184831 0
M  V30 7 C 10.009125 6.609654 -6.652265 0
M  V30 8 N 12.094211 7.660520 -3.606152 0
M  V30 9 C 12.240954 8.947643 -3.997207 0
M  V30 10 H 9.230079 7.652912 -8.504956 0
M  V30 11 H 11.273760 5.759985 -4.018836 0
M  V30 12 H 11.832508 10.459503 -5.484886 0
M  V30 13 H 9.667124 5.590228 -6.697833 0
M  V30 14 H 12.808073 9.593249 -3.342791 0
M  V30 END ATOM
M  V30 BEGIN BOND
M  V30 1 1 2 1
M  V30 2 1 3 2
M  V30 3 2 4 3
M  V30 4 1 5 4
M  V30 5 1 6 3
M  V30 6 2 7 1
M  V30 7 1 7 4
M  V30 8 2 8 5
M  V30 9 2 9 6
M  V30 10 1 9 8
M  V30 11 1 10 1
M  V30 12 1 11 5
M  V30 13 1 12 6
M  V30 14 1 13 7
M  V30 15 1 14 9
M  V30 END BOND
M  V30 END CTAB
M  END
>  <i_epik_Tot_Q>  (1) 
0

>  <i_epik_Tot_abs_Q>  (1) 
0

>  <i_i_glide_confnum>  (1) 
1

>  <i_i_glide_lignum>  (1) 
43

>  <i_i_glide_posenum>  (1) 
178

>  <i_i_glide_rotatable_bonds>  (1) 
0

>  <i_lp_mmshare_version>  (1) 
72125

>  <i_m_source_file_index>  (1) 
39

>  <i_f3d_flags>  (1) 
0

>  <num_sample>  (1) 
50

>  <b_lp_Chiralities_Consistent>  (1) 
1

>  <r_epik_Charging_Adjusted_Penalty>  (1) 
0

>  <r_epik_Ionization_Penalty>  (1) 
0.00075511756769225586

>  <r_epik_Ionization_Penalty_Charging>  (1) 
0

>  <r_epik_Ionization_Penalty_Neutral>  (1) 
0.00075511756769225586

>  <r_epik_State_Penalty>  (1) 
-0

>  <r_glide_ring_energy>  (1) 
0

>  <r_i_docking_score>  (1) 
-5.6030545698435725

>  <r_i_glide_ecoul>  (1) 
-1.7098797037757754

>  <r_i_glide_eff_state_penalty>  (1) 
-0

>  <r_i_glide_einternal>  (1) 
0

>  <r_i_glide_emodel>  (1) 
-28.228440125643814

>  <r_i_glide_emodel_strain>  (1) 
0

>  <r_i_glide_energy>  (1) 
-20.838077243011163

>  <r_i_glide_erotb>  (1) 
0

>  <r_i_glide_esite>  (1) 
0

>  <r_i_glide_evdw>  (1) 
-19.128197539235387

>  <r_i_glide_gscore>  (1) 
-5.6030545698435725

>  <r_i_glide_gscore_strain>  (1) 
0

>  <r_i_glide_hbond>  (1) 
0

>  <r_i_glide_ligand_efficiency>  (1) 
-0.62256161887150807

>  <r_i_glide_ligand_efficiency_ln>  (1) 
-1.7524745085350808

>  <r_i_glide_ligand_efficiency_sa>  (1) 
-1.2949803522676291

>  <r_i_glide_lipo>  (1) 
-1.6200083517963402

>  <r_i_glide_metal>  (1) 
-0

>  <r_i_glide_rewards>  (1) 
-2.770154385519096

>  <r_lp_Energy>  (1) 
12.667646999999999

>  <r_lp_tautomer_probability>  (1) 
1

>  <s_epik_cmdline>  (1) 
J2VwaWtfcHl0aG9uJywgJy1waHQnLCAnMS4wJywgJy1waCcsICc3LjQnLCAnLXRuJywgJzgnLCAnLW1hJywgJzUwMCcsICctaW1hZScsICc8aW5maWxlLm1hZT4nLCAnLW9tYWUnLCAnPG91dGZpbGUubWFlPic=

>  <s_epik_input>  (1) 
bzFbY0hdW2NIXWMoYzEyKVtjSF1uW2NIXVtjSF0y

>  <s_glide_docking_method>  (1) 
confgen

>  <s_i_glide_gridfile>  (1) 
gpcr_drd2_6luq_protein_autoprepared_prepared

>  <s_lp_Force_Field>  (1) 
S-OPLS

>  <s_lp_Variant>  (1) 
Pocket2Mol_38-1

>  <s_m_source_file>  (1) 
generated_generic_title2_ligand_Pocket2Mol_2026-06-23_prepared.sdf

>  <GenAI_Model>  (1) 
Pocket2Mol

>  <Protein>  (1) 
generic_title2

$$$$
Pocket2Mol_26
     RDKit          3D

  0  0  0  0  0  0  0  0  0  0999 V3000
M  V30 BEGIN CTAB
M  V30 COUNTS 15 15 0 0 1
M  V30 BEGIN ATOM
M  V30 1 C 11.375410 6.457608 -4.115983 0
M  V30 2 O 11.292126 7.621596 -4.979359 0
M  V30 3 C 11.775421 8.857630 -4.564648 0
M  V30 4 C 11.578954 9.955768 -5.585021 0
M  V30 5 C 12.050504 6.723653 -2.785024 0
M  V30 6 C 12.357643 9.018516 -3.359702 0
M  V30 7 C 12.500890 7.925551 -2.452973 0
M  V30 8 H 10.369696 6.077902 -3.936274 0
M  V30 9 H 11.917788 5.674838 -4.643932 0
M  V30 10 H 11.036702 10.790228 -5.140895 0
M  V30 11 H 12.540750 10.316078 -5.950455 0
M  V30 12 H 11.003158 9.590227 -6.435632 0
M  V30 13 H 12.153615 5.891345 -2.103742 0
M  V30 14 H 12.722174 9.990227 -3.073031 0
M  V30 15 H 12.975409 8.079161 -1.494861 0
M  V30 END ATOM
M  V30 BEGIN BOND
M  V30 1 1 2 1
M  V30 2 1 3 2
M  V30 3 1 4 3
M  V30 4 1 5 1
M  V30 5 2 6 3
M  V30 6 2 7 5
M  V30 7 1 7 6
M  V30 8 1 8 1
M  V30 9 1 9 1
M  V30 10 1 10 4
M  V30 11 1 11 4
M  V30 12 1 12 4
M  V30 13 1 13 5
M  V30 14 1 14 6
M  V30 15 1 15 7
M  V30 END BOND
M  V30 END CTAB
M  END
>  <i_epik_Tot_Q>  (1) 
0

>  <i_epik_Tot_abs_Q>  (1) 
0

>  <i_i_glide_confnum>  (1) 
1

>  <i_i_glide_lignum>  (1) 
30

>  <i_i_glide_posenum>  (1) 
18

>  <i_i_glide_rotatable_bonds>  (1) 
0

>  <i_lp_mmshare_version>  (1) 
72125

>  <i_m_source_file_index>  (1) 
27

>  <i_f3d_flags>  (1) 
0

>  <num_sample>  (1) 
50

>  <b_lp_Chiralities_Consistent>  (1) 
1

>  <r_epik_Charging_Adjusted_Penalty>  (1) 
0

>  <r_epik_Ionization_Penalty>  (1) 
0

>  <r_epik_Ionization_Penalty_Charging>  (1) 
0

>  <r_epik_Ionization_Penalty_Neutral>  (1) 
0

>  <r_epik_State_Penalty>  (1) 
-0

>  <r_glide_ring_energy>  (1) 
0

>  <r_i_docking_score>  (1) 
-5.5118605907015619

>  <r_i_glide_ecoul>  (1) 
-0.8712455093098429

>  <r_i_glide_eff_state_penalty>  (1) 
-0

>  <r_i_glide_einternal>  (1) 
0

>  <r_i_glide_emodel>  (1) 
-24.768724453600292

>  <r_i_glide_emodel_strain>  (1) 
0

>  <r_i_glide_energy>  (1) 
-18.726556879700858

>  <r_i_glide_erotb>  (1) 
0

>  <r_i_glide_esite>  (1) 
0

>  <r_i_glide_evdw>  (1) 
-17.855311370391014

>  <r_i_glide_gscore>  (1) 
-5.5118605907015619

>  <r_i_glide_gscore_strain>  (1) 
0

>  <r_i_glide_hbond>  (1) 
0

>  <r_i_glide_ligand_efficiency>  (1) 
-0.78740865581450881

>  <r_i_glide_ligand_efficiency_ln>  (1) 
-1.8710212843623526

>  <r_i_glide_ligand_efficiency_sa>  (1) 
-1.5062585712924654

>  <r_i_glide_lipo>  (1) 
-1.888408195785535

>  <r_i_glide_metal>  (1) 
-0

>  <r_i_glide_rewards>  (1) 
-2.6000000000000001

>  <r_lp_Energy>  (1) 
4.7929789999999999

>  <r_lp_tautomer_probability>  (1) 
1

>  <s_epik_cmdline>  (1) 
J2VwaWtfcHl0aG9uJywgJy1waHQnLCAnMS4wJywgJy1waCcsICc3LjQnLCAnLXRuJywgJzgnLCAnLW1hJywgJzUwMCcsICctaW1hZScsICc8aW5maWxlLm1hZT4nLCAnLW9tYWUnLCAnPG91dGZpbGUubWFlPic=

>  <s_epik_input>  (1) 
TzFbQ0gyXVtDSF09W0NIXVtDSF09QzFbQ0gzXQ==

>  <s_glide_docking_method>  (1) 
confgen

>  <s_i_glide_gridfile>  (1) 
gpcr_drd2_6luq_protein_autoprepared_prepared

>  <s_lp_Force_Field>  (1) 
S-OPLS

>  <s_lp_Variant>  (1) 
Pocket2Mol_26-1

>  <s_m_source_file>  (1) 
generated_generic_title2_ligand_Pocket2Mol_2026-06-23_prepared.sdf

>  <GenAI_Model>  (1) 
Pocket2Mol

>  <Protein>  (1) 
generic_title2

$$$$
Pocket2Mol_42
     RDKit          3D

  0  0  0  0  0  0  0  0  0  0999 V3000
M  V30 BEGIN CTAB
M  V30 COUNTS 16 17 0 0 1
M  V30 BEGIN ATOM
M  V30 1 C 10.535200 7.379183 -7.155802 0
M  V30 2 O 10.889224 8.754930 -6.662652 0
M  V30 3 C 11.364134 8.526151 -5.382932 0
M  V30 4 C 11.375404 7.244956 -5.041181 0
M  V30 5 C 11.775410 6.794402 -3.776864 0
M  V30 6 C 11.775410 9.525569 -4.491921 0
M  V30 7 C 12.205771 9.139640 -3.194164 0
M  V30 8 C 12.203965 7.759642 -2.832819 0
M  V30 9 N 10.939393 6.501316 -6.045442 0
M  V30 10 H 9.460732 7.284982 -7.326061 0
M  V30 11 H 11.101655 7.119584 -8.050689 0
M  V30 12 H 11.761941 5.743155 -3.530072 0
M  V30 13 H 11.757279 10.563925 -4.785024 0
M  V30 14 H 12.527142 9.886665 -2.483217 0
M  V30 15 H 12.524543 7.453634 -1.848010 0
M  V30 16 H 10.323234 5.732258 -5.817190 0
M  V30 END ATOM
M  V30 BEGIN BOND
M  V30 1 1 2 1
M  V30 2 1 3 2
M  V30 3 1 4 3
M  V30 4 2 5 4
M  V30 5 2 6 3
M  V30 6 1 7 6
M  V30 7 1 8 5
M  V30 8 2 8 7
M  V30 9 1 9 1
M  V30 10 1 9 4
M  V30 11 1 10 1
M  V30 12 1 11 1
M  V30 13 1 12 5
M  V30 14 1 13 6
M  V30 15 1 14 7
M  V30 16 1 15 8
M  V30 17 1 16 9
M  V30 END BOND
M  V30 END CTAB
M  END
>  <i_epik_Tot_Q>  (1) 
0

>  <i_epik_Tot_abs_Q>  (1) 
0

>  <i_i_glide_confnum>  (1) 
1

>  <i_i_glide_lignum>  (1) 
47

>  <i_i_glide_posenum>  (1) 
317

>  <i_i_glide_rotatable_bonds>  (1) 
0

>  <i_lp_mmshare_version>  (1) 
72125

>  <i_m_source_file_index>  (1) 
43

>  <i_f3d_flags>  (1) 
0

>  <num_sample>  (1) 
50

>  <b_lp_Chiralities_Consistent>  (1) 
1

>  <r_epik_Charging_Adjusted_Penalty>  (1) 
0

>  <r_epik_Ionization_Penalty>  (1) 
3.929707007381515e-06

>  <r_epik_Ionization_Penalty_Charging>  (1) 
0

>  <r_epik_Ionization_Penalty_Neutral>  (1) 
3.929707007381515e-06

>  <r_epik_State_Penalty>  (1) 
-0

>  <r_glide_ring_energy>  (1) 
0

>  <r_i_docking_score>  (1) 
-5.4949737355644448

>  <r_i_glide_ecoul>  (1) 
-1.8494162310811677

>  <r_i_glide_eff_state_penalty>  (1) 
-0

>  <r_i_glide_einternal>  (1) 
0

>  <r_i_glide_emodel>  (1) 
-27.736485791940318

>  <r_i_glide_emodel_strain>  (1) 
0

>  <r_i_glide_energy>  (1) 
-20.660898225968758

>  <r_i_glide_erotb>  (1) 
0

>  <r_i_glide_esite>  (1) 
0

>  <r_i_glide_evdw>  (1) 
-18.81148199488759

>  <r_i_glide_gscore>  (1) 
-5.4949737355644448

>  <r_i_glide_gscore_strain>  (1) 
0

>  <r_i_glide_hbond>  (1) 
0

>  <r_i_glide_ligand_efficiency>  (1) 
-0.61055263728493836

>  <r_i_glide_ligand_efficiency_ln>  (1) 
-1.7186699284485685

>  <r_i_glide_ligand_efficiency_sa>  (1) 
-1.2700006639380772

>  <r_i_glide_lipo>  (1) 
-1.7229319596226016

>  <r_i_glide_metal>  (1) 
-0

>  <r_i_glide_rewards>  (1) 
-2.5540552415352886

>  <r_lp_Energy>  (1) 
10.457737999999999

>  <r_lp_tautomer_probability>  (1) 
1

>  <s_epik_Chemistry_Notes>  (1) 
This compound contains an acetal/aminal-like group ( X-CH(R)-Y where X, Y are N, S, or O) that may be acid/base labile, releasing an aldehyde.

>  <s_epik_cmdline>  (1) 
J2VwaWtfcHl0aG9uJywgJy1waHQnLCAnMS4wJywgJy1waCcsICc3LjQnLCAnLXRuJywgJzgnLCAnLW1hJywgJzUwMCcsICctaW1hZScsICc8aW5maWxlLm1hZT4nLCAnLW9tYWUnLCAnPG91dGZpbGUubWFlPic=

>  <s_epik_input>  (1) 
TzFbQ0gyXVtOSF1jKGMxMilbY0hdW2NIXVtjSF1bY0hdMg==

>  <s_glide_docking_method>  (1) 
confgen

>  <s_i_glide_gridfile>  (1) 
gpcr_drd2_6luq_protein_autoprepared_prepared

>  <s_lp_Force_Field>  (1) 
S-OPLS

>  <s_lp_Variant>  (1) 
Pocket2Mol_42-1

>  <s_m_source_file>  (1) 
generated_generic_title2_ligand_Pocket2Mol_2026-06-23_prepared.sdf

>  <GenAI_Model>  (1) 
Pocket2Mol

>  <Protein>  (1) 
generic_title2

$$$$
Pocket2Mol_26
     RDKit          3D

  0  0  0  0  0  0  0  0  0  0999 V3000
M  V30 BEGIN CTAB
M  V30 COUNTS 15 15 0 0 1
M  V30 BEGIN ATOM
M  V30 1 C 10.975400 7.263670 -5.713561 0
M  V30 2 O 11.524634 6.889545 -4.422120 0
M  V30 3 C 12.101129 7.839276 -3.585023 0
M  V30 4 C 12.575410 7.271328 -2.272588 0
M  V30 5 C 11.123022 8.733806 -6.044259 0
M  V30 6 C 12.189189 9.135650 -3.944281 0
M  V30 7 C 11.692315 9.590225 -5.205735 0
M  V30 8 H 11.466639 6.674329 -6.487989 0
M  V30 9 H 9.916843 7.002492 -5.732898 0
M  V30 10 H 12.975411 8.052510 -1.625967 0
M  V30 11 H 11.741175 6.794933 -1.757658 0
M  V30 12 H 13.344496 6.518070 -2.440035 0
M  V30 13 H 10.742886 9.070136 -6.997755 0
M  V30 14 H 12.638330 9.844874 -3.264112 0
M  V30 15 H 11.776944 10.632910 -5.475304 0
M  V30 END ATOM
M  V30 BEGIN BOND
M  V30 1 1 2 1
M  V30 2 1 3 2
M  V30 3 1 4 3
M  V30 4 1 5 1
M  V30 5 2 6 3
M  V30 6 2 7 5
M  V30 7 1 7 6
M  V30 8 1 8 1
M  V30 9 1 9 1
M  V30 10 1 10 4
M  V30 11 1 11 4
M  V30 12 1 12 4
M  V30 13 1 13 5
M  V30 14 1 14 6
M  V30 15 1 15 7
M  V30 END BOND
M  V30 END CTAB
M  END
>  <i_epik_Tot_Q>  (1) 
0

>  <i_epik_Tot_abs_Q>  (1) 
0

>  <i_i_glide_confnum>  (1) 
1

>  <i_i_glide_lignum>  (1) 
30

>  <i_i_glide_posenum>  (1) 
349

>  <i_i_glide_rotatable_bonds>  (1) 
0

>  <i_lp_mmshare_version>  (1) 
72125

>  <i_m_source_file_index>  (1) 
27

>  <i_f3d_flags>  (1) 
0

>  <num_sample>  (1) 
50

>  <b_lp_Chiralities_Consistent>  (1) 
1

>  <r_epik_Charging_Adjusted_Penalty>  (1) 
0

>  <r_epik_Ionization_Penalty>  (1) 
0

>  <r_epik_Ionization_Penalty_Charging>  (1) 
0

>  <r_epik_Ionization_Penalty_Neutral>  (1) 
0

>  <r_epik_State_Penalty>  (1) 
-0

>  <r_glide_ring_energy>  (1) 
0

>  <r_i_docking_score>  (1) 
-5.4750886728457058

>  <r_i_glide_ecoul>  (1) 
-0.31692905552212064

>  <r_i_glide_eff_state_penalty>  (1) 
-0

>  <r_i_glide_einternal>  (1) 
0

>  <r_i_glide_emodel>  (1) 
-23.745974647141153

>  <r_i_glide_emodel_strain>  (1) 
0.013607438711710884

>  <r_i_glide_energy>  (1) 
-17.75772432858297

>  <r_i_glide_erotb>  (1) 
0

>  <r_i_glide_esite>  (1) 
0

>  <r_i_glide_evdw>  (1) 
-17.44079527306085

>  <r_i_glide_gscore>  (1) 
-5.4750886728457058

>  <r_i_glide_gscore_strain>  (1) 
0

>  <r_i_glide_hbond>  (1) 
0

>  <r_i_glide_ligand_efficiency>  (1) 
-0.7821555246922437

>  <r_i_glide_ligand_efficiency_ln>  (1) 
-1.8585389220378776

>  <r_i_glide_ligand_efficiency_sa>  (1) 
-1.4962096929614923

>  <r_i_glide_lipo>  (1) 
-1.8902793227825441

>  <r_i_glide_metal>  (1) 
-0

>  <r_i_glide_rewards>  (1) 
-2.6652302280818003

>  <r_lp_Energy>  (1) 
4.7929789999999999

>  <r_lp_tautomer_probability>  (1) 
1

>  <s_epik_cmdline>  (1) 
J2VwaWtfcHl0aG9uJywgJy1waHQnLCAnMS4wJywgJy1waCcsICc3LjQnLCAnLXRuJywgJzgnLCAnLW1hJywgJzUwMCcsICctaW1hZScsICc8aW5maWxlLm1hZT4nLCAnLW9tYWUnLCAnPG91dGZpbGUubWFlPic=

>  <s_epik_input>  (1) 
TzFbQ0gyXVtDSF09W0NIXVtDSF09QzFbQ0gzXQ==

>  <s_glide_docking_method>  (1) 
confgen

>  <s_i_glide_gridfile>  (1) 
gpcr_drd2_6luq_protein_autoprepared_prepared

>  <s_lp_Force_Field>  (1) 
S-OPLS

>  <s_lp_Variant>  (1) 
Pocket2Mol_26-1

>  <s_m_source_file>  (1) 
generated_generic_title2_ligand_Pocket2Mol_2026-06-23_prepared.sdf

>  <GenAI_Model>  (1) 
Pocket2Mol

>  <Protein>  (1) 
generic_title2

$$$$
Pocket2Mol_44
     RDKit          3D

  0  0  0  0  0  0  0  0  0  0999 V3000
M  V30 BEGIN CTAB
M  V30 COUNTS 14 15 0 0 1
M  V30 BEGIN ATOM
M  V30 1 C 12.425410 8.458088 -2.143526 0
M  V30 2 O 12.175720 7.167825 -2.788848 0
M  V30 3 C 11.775411 7.607277 -3.985025 0
M  V30 4 C 11.776863 8.923655 -4.118448 0
M  V30 5 C 11.375582 9.520570 -5.324267 0
M  V30 6 N 10.972323 8.789439 -6.399432 0
M  V30 7 C 10.971639 7.429280 -6.240723 0
M  V30 8 C 11.370827 6.790227 -5.041309 0
M  V30 9 O 12.175401 9.590211 -3.034333 0
M  V30 10 H 11.775411 8.551351 -1.272057 0
M  V30 11 H 13.460069 8.503061 -1.805929 0
M  V30 12 H 11.373483 10.594900 -5.436792 0
M  V30 13 H 10.647886 6.846035 -7.090098 0
M  V30 14 H 11.359924 5.714735 -4.947154 0
M  V30 END ATOM
M  V30 BEGIN BOND
M  V30 1 1 2 1
M  V30 2 1 3 2
M  V30 3 2 4 3
M  V30 4 1 5 4
M  V30 5 2 6 5
M  V30 6 1 7 6
M  V30 7 1 8 3
M  V30 8 2 8 7
M  V30 9 1 9 1
M  V30 10 1 9 4
M  V30 11 1 10 1
M  V30 12 1 11 1
M  V30 13 1 12 5
M  V30 14 1 13 7
M  V30 15 1 14 8
M  V30 END BOND
M  V30 END CTAB
M  END
>  <i_epik_Tot_Q>  (1) 
0

>  <i_epik_Tot_abs_Q>  (1) 
0

>  <i_i_glide_confnum>  (1) 
1

>  <i_i_glide_lignum>  (1) 
49

>  <i_i_glide_posenum>  (1) 
4

>  <i_i_glide_rotatable_bonds>  (1) 
0

>  <i_lp_mmshare_version>  (1) 
72125

>  <i_m_source_file_index>  (1) 
45

>  <i_f3d_flags>  (1) 
0

>  <num_sample>  (1) 
50

>  <b_lp_Chiralities_Consistent>  (1) 
1

>  <r_epik_Charging_Adjusted_Penalty>  (1) 
0.069790075728531922

>  <r_epik_Ionization_Penalty>  (1) 
0.069790075728531936

>  <r_epik_Ionization_Penalty_Charging>  (1) 
0

>  <r_epik_Ionization_Penalty_Neutral>  (1) 
0.069790075728531936

>  <r_epik_State_Penalty>  (1) 
0.069790075728531922

>  <r_glide_ring_energy>  (1) 
0

>  <r_i_docking_score>  (1) 
-5.4663345905794385

>  <r_i_glide_ecoul>  (1) 
-0.584214270427863

>  <r_i_glide_eff_state_penalty>  (1) 
0.069790075728531922

>  <r_i_glide_einternal>  (1) 
0

>  <r_i_glide_emodel>  (1) 
-27.853828822052932

>  <r_i_glide_emodel_strain>  (1) 
0

>  <r_i_glide_energy>  (1) 
-20.570826862993464

>  <r_i_glide_erotb>  (1) 
0

>  <r_i_glide_esite>  (1) 
0

>  <r_i_glide_evdw>  (1) 
-19.986612592565599

>  <r_i_glide_gscore>  (1) 
-5.5361246663079706

>  <r_i_glide_gscore_strain>  (1) 
0

>  <r_i_glide_hbond>  (1) 
0

>  <r_i_glide_ligand_efficiency>  (1) 
-0.60737051006438203

>  <r_i_glide_ligand_efficiency_ln>  (1) 
-1.7097124266240118

>  <r_i_glide_ligand_efficiency_sa>  (1) 
-1.263381572583705

>  <r_i_glide_lipo>  (1) 
-1.3074952294488449

>  <r_i_glide_metal>  (1) 
-0

>  <r_i_glide_rewards>  (1) 
-3.1416666666666666

>  <r_lp_Energy>  (1) 
21.238785

>  <r_lp_tautomer_probability>  (1) 
1

>  <s_epik_Chemistry_Notes>  (1) 
This compound contains an acetal/aminal-like group ( X-CH(R)-Y where X, Y are N, S, or O) that may be acid/base labile, releasing an aldehyde.

>  <s_epik_cmdline>  (1) 
J2VwaWtfcHl0aG9uJywgJy1waHQnLCAnMS4wJywgJy1waCcsICc3LjQnLCAnLXRuJywgJzgnLCAnLW1hJywgJzUwMCcsICctaW1hZScsICc8aW5maWxlLm1hZT4nLCAnLW9tYWUnLCAnPG91dGZpbGUubWFlPic=

>  <s_epik_input>  (1) 
TzFbQ0gyXU9jKGMxMilbY0hdbltjSF1bY0hdMg==

>  <s_glide_docking_method>  (1) 
confgen

>  <s_i_glide_gridfile>  (1) 
gpcr_drd2_6luq_protein_autoprepared_prepared

>  <s_lp_Force_Field>  (1) 
S-OPLS

>  <s_lp_Variant>  (1) 
Pocket2Mol_44-1

>  <s_m_source_file>  (1) 
generated_generic_title2_ligand_Pocket2Mol_2026-06-23_prepared.sdf

>  <GenAI_Model>  (1) 
Pocket2Mol

>  <Protein>  (1) 
generic_title2

$$$$
Pocket2Mol_22
     RDKit          3D

  0  0  0  0  0  0  0  0  0  0999 V3000
M  V30 BEGIN CTAB
M  V30 COUNTS 11 11 0 0 1
M  V30 BEGIN ATOM
M  V30 1 N 12.128169 9.516013 -4.639677 0
M  V30 2 C 12.511287 8.754141 -3.585025 0
M  V30 3 C 12.162855 7.396050 -3.442716 0
M  V30 4 C 11.374356 8.917811 -5.594807 0
M  V30 5 C 10.975410 7.566453 -5.537685 0
M  V30 6 F 12.575410 6.688154 -2.365097 0
M  V30 7 C 11.375410 6.790232 -4.437620 0
M  V30 8 H 13.113099 9.244077 -2.834130 0
M  V30 9 H 11.079738 9.537756 -6.428617 0
M  V30 10 H 10.371255 7.136860 -6.324064 0
M  V30 11 H 11.087424 5.752434 -4.359426 0
M  V30 END ATOM
M  V30 BEGIN BOND
M  V30 1 2 2 1
M  V30 2 1 3 2
M  V30 3 1 4 1
M  V30 4 2 5 4
M  V30 5 1 6 3
M  V30 6 2 7 3
M  V30 7 1 7 5
M  V30 8 1 8 2
M  V30 9 1 9 4
M  V30 10 1 10 5
M  V30 11 1 11 7
M  V30 END BOND
M  V30 END CTAB
M  END
>  <i_epik_Tot_Q>  (1) 
0

>  <i_epik_Tot_abs_Q>  (1) 
0

>  <i_i_glide_confnum>  (1) 
1

>  <i_i_glide_lignum>  (1) 
26

>  <i_i_glide_posenum>  (1) 
272

>  <i_i_glide_rotatable_bonds>  (1) 
0

>  <i_lp_mmshare_version>  (1) 
72125

>  <i_m_source_file_index>  (1) 
23

>  <i_f3d_flags>  (1) 
0

>  <num_sample>  (1) 
50

>  <b_lp_Chiralities_Consistent>  (1) 
1

>  <r_epik_Charging_Adjusted_Penalty>  (1) 
0

>  <r_epik_Ionization_Penalty>  (1) 
7.3223601380878174e-05

>  <r_epik_Ionization_Penalty_Charging>  (1) 
0

>  <r_epik_Ionization_Penalty_Neutral>  (1) 
7.3223601380878174e-05

>  <r_epik_State_Penalty>  (1) 
-0

>  <r_glide_ring_energy>  (1) 
0

>  <r_i_docking_score>  (1) 
-5.4018780936326376

>  <r_i_glide_ecoul>  (1) 
-1.0693455766438051

>  <r_i_glide_eff_state_penalty>  (1) 
-0

>  <r_i_glide_einternal>  (1) 
0

>  <r_i_glide_emodel>  (1) 
-21.942761934891799

>  <r_i_glide_emodel_strain>  (1) 
0

>  <r_i_glide_energy>  (1) 
-16.424582717143458

>  <r_i_glide_erotb>  (1) 
0

>  <r_i_glide_esite>  (1) 
0

>  <r_i_glide_evdw>  (1) 
-15.355237140499652

>  <r_i_glide_gscore>  (1) 
-5.4018780936326376

>  <r_i_glide_gscore_strain>  (1) 
0

>  <r_i_glide_hbond>  (1) 
0

>  <r_i_glide_ligand_efficiency>  (1) 
-0.7716968705189482

>  <r_i_glide_ligand_efficiency_ln>  (1) 
-1.8336873225291332

>  <r_i_glide_ligand_efficiency_sa>  (1) 
-1.476203007263563

>  <r_i_glide_lipo>  (1) 
-1.4849467031672106

>  <r_i_glide_metal>  (1) 
-0

>  <r_i_glide_rewards>  (1) 
-2.9887676969438735

>  <r_lp_Energy>  (1) 
10.789624

>  <r_lp_tautomer_probability>  (1) 
1

>  <s_epik_cmdline>  (1) 
J2VwaWtfcHl0aG9uJywgJy1waHQnLCAnMS4wJywgJy1waCcsICc3LjQnLCAnLXRuJywgJzgnLCAnLW1hJywgJzUwMCcsICctaW1hZScsICc8aW5maWxlLm1hZT4nLCAnLW9tYWUnLCAnPG91dGZpbGUubWFlPic=

>  <s_epik_input>  (1) 
W2NIXTFbY0hdW2NIXW5bY0hdYzFG

>  <s_glide_docking_method>  (1) 
confgen

>  <s_i_glide_gridfile>  (1) 
gpcr_drd2_6luq_protein_autoprepared_prepared

>  <s_lp_Force_Field>  (1) 
S-OPLS

>  <s_lp_Variant>  (1) 
Pocket2Mol_22-1

>  <s_m_source_file>  (1) 
generated_generic_title2_ligand_Pocket2Mol_2026-06-23_prepared.sdf

>  <GenAI_Model>  (1) 
Pocket2Mol

>  <Protein>  (1) 
generic_title2

$$$$
Pocket2Mol_35
     RDKit          3D

  0  0  0  0  0  0  0  0  0  0999 V3000
M  V30 BEGIN CTAB
M  V30 COUNTS 15 16 0 0 1
M  V30 BEGIN ATOM
M  V30 1 C 11.160941 9.108749 -6.409419 0
M  V30 2 O 10.963417 7.695981 -6.110059 0
M  V30 3 C 11.375411 7.681682 -4.841191 0
M  V30 4 C 11.784207 8.865696 -4.384633 0
M  V30 5 C 12.250535 9.028018 -3.070461 0
M  V30 6 C 12.286758 7.903718 -2.216506 0
M  V30 7 C 11.849907 6.645234 -2.701278 0
M  V30 8 C 11.386062 6.535533 -4.033695 0
M  V30 9 O 11.706760 9.854971 -5.279095 0
M  V30 10 H 10.194614 9.534698 -6.674852 0
M  V30 11 H 11.829751 9.200176 -7.265854 0
M  V30 12 H 12.575355 9.990264 -2.718513 0
M  V30 13 H 12.643448 8.003433 -1.202073 0
M  V30 14 H 11.869879 5.777023 -2.058625 0
M  V30 15 H 11.046630 5.590316 -4.422156 0
M  V30 END ATOM
M  V30 BEGIN BOND
M  V30 1 1 2 1
M  V30 2 1 3 2
M  V30 3 1 4 3
M  V30 4 2 5 4
M  V30 5 1 6 5
M  V30 6 2 7 6
M  V30 7 2 8 3
M  V30 8 1 8 7
M  V30 9 1 9 1
M  V30 10 1 9 4
M  V30 11 1 10 1
M  V30 12 1 11 1
M  V30 13 1 12 5
M  V30 14 1 13 6
M  V30 15 1 14 7
M  V30 16 1 15 8
M  V30 END BOND
M  V30 END CTAB
M  END
>  <i_epik_Tot_Q>  (1) 
0

>  <i_epik_Tot_abs_Q>  (1) 
0

>  <i_i_glide_confnum>  (1) 
1

>  <i_i_glide_lignum>  (1) 
40

>  <i_i_glide_posenum>  (1) 
105

>  <i_i_glide_rotatable_bonds>  (1) 
0

>  <i_lp_mmshare_version>  (1) 
72125

>  <i_m_source_file_index>  (1) 
36

>  <i_f3d_flags>  (1) 
0

>  <num_sample>  (1) 
50

>  <b_lp_Chiralities_Consistent>  (1) 
1

>  <r_epik_Charging_Adjusted_Penalty>  (1) 
0

>  <r_epik_Ionization_Penalty>  (1) 
0

>  <r_epik_Ionization_Penalty_Charging>  (1) 
0

>  <r_epik_Ionization_Penalty_Neutral>  (1) 
0

>  <r_epik_State_Penalty>  (1) 
-0

>  <r_glide_ring_energy>  (1) 
0

>  <r_i_docking_score>  (1) 
-5.3953006711551073

>  <r_i_glide_ecoul>  (1) 
-0.78220197000481673

>  <r_i_glide_eff_state_penalty>  (1) 
-0

>  <r_i_glide_einternal>  (1) 
0

>  <r_i_glide_emodel>  (1) 
-25.807336728706723

>  <r_i_glide_emodel_strain>  (1) 
0

>  <r_i_glide_energy>  (1) 
-18.850168515873126

>  <r_i_glide_erotb>  (1) 
0

>  <r_i_glide_esite>  (1) 
0

>  <r_i_glide_evdw>  (1) 
-18.067966545868309

>  <r_i_glide_gscore>  (1) 
-5.3953006711551073

>  <r_i_glide_gscore_strain>  (1) 
0

>  <r_i_glide_hbond>  (1) 
0

>  <r_i_glide_ligand_efficiency>  (1) 
-0.5994778523505675

>  <r_i_glide_ligand_efficiency_ln>  (1) 
-1.6874950572443752

>  <r_i_glide_ligand_efficiency_sa>  (1) 
-1.2469641829523135

>  <r_i_glide_lipo>  (1) 
-1.7015093099524943

>  <r_i_glide_metal>  (1) 
-0

>  <r_i_glide_rewards>  (1) 
-2.6730627384084755

>  <r_lp_Energy>  (1) 
19.342482

>  <r_lp_tautomer_probability>  (1) 
1

>  <s_epik_Chemistry_Notes>  (1) 
This compound contains an acetal/aminal-like group ( X-CH(R)-Y where X, Y are N, S, or O) that may be acid/base labile, releasing an aldehyde.

>  <s_epik_cmdline>  (1) 
J2VwaWtfcHl0aG9uJywgJy1waHQnLCAnMS4wJywgJy1waCcsICc3LjQnLCAnLXRuJywgJzgnLCAnLW1hJywgJzUwMCcsICctaW1hZScsICc8aW5maWxlLm1hZT4nLCAnLW9tYWUnLCAnPG91dGZpbGUubWFlPic=

>  <s_epik_input>  (1) 
TzFbQ0gyXU9jKGMxMilbY0hdW2NIXVtjSF1bY0hdMg==

>  <s_glide_docking_method>  (1) 
confgen

>  <s_i_glide_gridfile>  (1) 
gpcr_drd2_6luq_protein_autoprepared_prepared

>  <s_lp_Force_Field>  (1) 
S-OPLS

>  <s_lp_Variant>  (1) 
Pocket2Mol_35-1

>  <s_m_source_file>  (1) 
generated_generic_title2_ligand_Pocket2Mol_2026-06-23_prepared.sdf

>  <GenAI_Model>  (1) 
Pocket2Mol

>  <Protein>  (1) 
generic_title2

$$$$
Pocket2Mol_44
     RDKit          3D

  0  0  0  0  0  0  0  0  0  0999 V3000
M  V30 BEGIN CTAB
M  V30 COUNTS 14 15 0 0 1
M  V30 BEGIN ATOM
M  V30 1 C 12.425788 8.522279 -2.205442 0
M  V30 2 O 12.172282 9.590227 -3.171177 0
M  V30 3 C 11.775413 8.851382 -4.206668 0
M  V30 4 C 11.775413 7.547798 -3.985025 0
M  V30 5 C 11.374344 6.654325 -4.989577 0
M  V30 6 N 10.975360 7.074922 -6.222747 0
M  V30 7 C 10.977252 8.426602 -6.431062 0
M  V30 8 C 11.375411 9.360172 -5.443716 0
M  V30 9 O 12.175410 7.191262 -2.760818 0
M  V30 10 H 13.461718 8.589770 -1.874000 0
M  V30 11 H 11.777960 8.673371 -1.340409 0
M  V30 12 H 11.371463 5.590232 -4.813291 0
M  V30 13 H 10.656458 8.763765 -7.405681 0
M  V30 14 H 11.367198 10.422222 -5.638616 0
M  V30 END ATOM
M  V30 BEGIN BOND
M  V30 1 1 2 1
M  V30 2 1 3 2
M  V30 3 2 4 3
M  V30 4 1 5 4
M  V30 5 2 6 5
M  V30 6 1 7 6
M  V30 7 1 8 3
M  V30 8 2 8 7
M  V30 9 1 9 1
M  V30 10 1 9 4
M  V30 11 1 10 1
M  V30 12 1 11 1
M  V30 13 1 12 5
M  V30 14 1 13 7
M  V30 15 1 14 8
M  V30 END BOND
M  V30 END CTAB
M  END
>  <i_epik_Tot_Q>  (1) 
0

>  <i_epik_Tot_abs_Q>  (1) 
0

>  <i_i_glide_confnum>  (1) 
1

>  <i_i_glide_lignum>  (1) 
49

>  <i_i_glide_posenum>  (1) 
180

>  <i_i_glide_rotatable_bonds>  (1) 
0

>  <i_lp_mmshare_version>  (1) 
72125

>  <i_m_source_file_index>  (1) 
45

>  <i_f3d_flags>  (1) 
0

>  <num_sample>  (1) 
50

>  <b_lp_Chiralities_Consistent>  (1) 
1

>  <r_epik_Charging_Adjusted_Penalty>  (1) 
0.069790075728531922

>  <r_epik_Ionization_Penalty>  (1) 
0.069790075728531936

>  <r_epik_Ionization_Penalty_Charging>  (1) 
0

>  <r_epik_Ionization_Penalty_Neutral>  (1) 
0.069790075728531936

>  <r_epik_State_Penalty>  (1) 
0.069790075728531922

>  <r_glide_ring_energy>  (1) 
0

>  <r_i_docking_score>  (1) 
-5.3839326282137279

>  <r_i_glide_ecoul>  (1) 
-0.021641091216547614

>  <r_i_glide_eff_state_penalty>  (1) 
0.069790075728531922

>  <r_i_glide_einternal>  (1) 
0

>  <r_i_glide_emodel>  (1) 
-26.977933177449298

>  <r_i_glide_emodel_strain>  (1) 
0

>  <r_i_glide_energy>  (1) 
-19.803334422709295

>  <r_i_glide_erotb>  (1) 
0

>  <r_i_glide_esite>  (1) 
0

>  <r_i_glide_evdw>  (1) 
-19.781693331492747

>  <r_i_glide_gscore>  (1) 
-5.45372270394226

>  <r_i_glide_gscore_strain>  (1) 
0

>  <r_i_glide_hbond>  (1) 
0

>  <r_i_glide_ligand_efficiency>  (1) 
-0.59821473646819201

>  <r_i_glide_ligand_efficiency_ln>  (1) 
-1.6839394599860649

>  <r_i_glide_ligand_efficiency_sa>  (1) 
-1.2443367960387444

>  <r_i_glide_lipo>  (1) 
-1.3336387268311558

>  <r_i_glide_metal>  (1) 
-0

>  <r_i_glide_rewards>  (1) 
-3.1277531468539848

>  <r_lp_Energy>  (1) 
21.238785

>  <r_lp_tautomer_probability>  (1) 
1

>  <s_epik_Chemistry_Notes>  (1) 
This compound contains an acetal/aminal-like group ( X-CH(R)-Y where X, Y are N, S, or O) that may be acid/base labile, releasing an aldehyde.

>  <s_epik_cmdline>  (1) 
J2VwaWtfcHl0aG9uJywgJy1waHQnLCAnMS4wJywgJy1waCcsICc3LjQnLCAnLXRuJywgJzgnLCAnLW1hJywgJzUwMCcsICctaW1hZScsICc8aW5maWxlLm1hZT4nLCAnLW9tYWUnLCAnPG91dGZpbGUubWFlPic=

>  <s_epik_input>  (1) 
TzFbQ0gyXU9jKGMxMilbY0hdbltjSF1bY0hdMg==

>  <s_glide_docking_method>  (1) 
confgen

>  <s_i_glide_gridfile>  (1) 
gpcr_drd2_6luq_protein_autoprepared_prepared

>  <s_lp_Force_Field>  (1) 
S-OPLS

>  <s_lp_Variant>  (1) 
Pocket2Mol_44-1

>  <s_m_source_file>  (1) 
generated_generic_title2_ligand_Pocket2Mol_2026-06-23_prepared.sdf

>  <GenAI_Model>  (1) 
Pocket2Mol

>  <Protein>  (1) 
generic_title2

$$$$
Pocket2Mol_38
     RDKit          3D

  0  0  0  0  0  0  0  0  0  0999 V3000
M  V30 BEGIN CTAB
M  V30 COUNTS 14 15 0 0 1
M  V30 BEGIN ATOM
M  V30 1 C 11.218570 9.442162 -5.471226 0
M  V30 2 O 10.163007 8.712696 -5.985023 0
M  V30 3 C 10.521723 8.317364 -7.247424 0
M  V30 4 C 11.804711 8.790179 -7.539445 0
M  V30 5 C 12.334258 8.461275 -8.830757 0
M  V30 6 C 9.775410 7.571051 -8.137662 0
M  V30 7 C 12.251308 9.517652 -6.385013 0
M  V30 8 N 11.584835 7.721964 -9.710721 0
M  V30 9 C 10.345139 7.294029 -9.372331 0
M  V30 10 H 11.084484 9.827992 -4.470806 0
M  V30 11 H 13.315994 8.783234 -9.146444 0
M  V30 12 H 8.781470 7.221404 -7.886668 0
M  V30 13 H 13.201946 10.016124 -6.265527 0
M  V30 14 H 9.808460 6.718474 -10.112716 0
M  V30 END ATOM
M  V30 BEGIN BOND
M  V30 1 1 2 1
M  V30 2 1 3 2
M  V30 3 2 4 3
M  V30 4 1 5 4
M  V30 5 1 6 3
M  V30 6 2 7 1
M  V30 7 1 7 4
M  V30 8 2 8 5
M  V30 9 2 9 6
M  V30 10 1 9 8
M  V30 11 1 10 1
M  V30 12 1 11 5
M  V30 13 1 12 6
M  V30 14 1 13 7
M  V30 15 1 14 9
M  V30 END BOND
M  V30 END CTAB
M  END
>  <i_epik_Tot_Q>  (1) 
0

>  <i_epik_Tot_abs_Q>  (1) 
0

>  <i_i_glide_confnum>  (1) 
1

>  <i_i_glide_lignum>  (1) 
43

>  <i_i_glide_posenum>  (1) 
281

>  <i_i_glide_rotatable_bonds>  (1) 
0

>  <i_lp_mmshare_version>  (1) 
72125

>  <i_m_source_file_index>  (1) 
39

>  <i_f3d_flags>  (1) 
0

>  <num_sample>  (1) 
50

>  <b_lp_Chiralities_Consistent>  (1) 
1

>  <r_epik_Charging_Adjusted_Penalty>  (1) 
0

>  <r_epik_Ionization_Penalty>  (1) 
0.00075511756769225586

>  <r_epik_Ionization_Penalty_Charging>  (1) 
0

>  <r_epik_Ionization_Penalty_Neutral>  (1) 
0.00075511756769225586

>  <r_epik_State_Penalty>  (1) 
-0

>  <r_glide_ring_energy>  (1) 
0

>  <r_i_docking_score>  (1) 
-5.3323194762206247

>  <r_i_glide_ecoul>  (1) 
-1.807449711332713

>  <r_i_glide_eff_state_penalty>  (1) 
-0

>  <r_i_glide_einternal>  (1) 
0

>  <r_i_glide_emodel>  (1) 
-26.656396306380643

>  <r_i_glide_emodel_strain>  (1) 
0

>  <r_i_glide_energy>  (1) 
-19.623129818579812

>  <r_i_glide_erotb>  (1) 
0

>  <r_i_glide_esite>  (1) 
0

>  <r_i_glide_evdw>  (1) 
-17.8156801072471

>  <r_i_glide_gscore>  (1) 
-5.3323194762206247

>  <r_i_glide_gscore_strain>  (1) 
0

>  <r_i_glide_hbond>  (1) 
0

>  <r_i_glide_ligand_efficiency>  (1) 
-0.59247994180229169

>  <r_i_glide_ligand_efficiency_ln>  (1) 
-1.6677963487517251

>  <r_i_glide_ligand_efficiency_sa>  (1) 
-1.2324079424256806

>  <r_i_glide_lipo>  (1) 
-1.345418014158362

>  <r_i_glide_metal>  (1) 
-0

>  <r_i_glide_rewards>  (1) 
-2.8250000000000002

>  <r_lp_Energy>  (1) 
12.667646999999999

>  <r_lp_tautomer_probability>  (1) 
1

>  <s_epik_cmdline>  (1) 
J2VwaWtfcHl0aG9uJywgJy1waHQnLCAnMS4wJywgJy1waCcsICc3LjQnLCAnLXRuJywgJzgnLCAnLW1hJywgJzUwMCcsICctaW1hZScsICc8aW5maWxlLm1hZT4nLCAnLW9tYWUnLCAnPG91dGZpbGUubWFlPic=

>  <s_epik_input>  (1) 
bzFbY0hdW2NIXWMoYzEyKVtjSF1uW2NIXVtjSF0y

>  <s_glide_docking_method>  (1) 
confgen

>  <s_i_glide_gridfile>  (1) 
gpcr_drd2_6luq_protein_autoprepared_prepared

>  <s_lp_Force_Field>  (1) 
S-OPLS

>  <s_lp_Variant>  (1) 
Pocket2Mol_38-1

>  <s_m_source_file>  (1) 
generated_generic_title2_ligand_Pocket2Mol_2026-06-23_prepared.sdf

>  <GenAI_Model>  (1) 
Pocket2Mol

>  <Protein>  (1) 
generic_title2

$$$$
Pocket2Mol_26
     RDKit          3D

  0  0  0  0  0  0  0  0  0  0999 V3000
M  V30 BEGIN CTAB
M  V30 COUNTS 15 15 0 0 1
M  V30 BEGIN ATOM
M  V30 1 C 12.296899 9.190227 -3.187177 0
M  V30 2 O 11.806513 9.222549 -4.552951 0
M  V30 3 C 11.375409 8.061214 -5.185026 0
M  V30 4 C 10.918299 8.283978 -6.609555 0
M  V30 5 C 12.253094 7.823345 -2.543607 0
M  V30 6 C 11.375411 6.870705 -4.550013 0
M  V30 7 C 11.819911 6.753573 -3.195925 0
M  V30 8 H 13.326392 9.548348 -3.184997 0
M  V30 9 H 11.712480 9.886077 -2.584812 0
M  V30 10 H 10.589322 7.352275 -7.071029 0
M  V30 11 H 10.084209 8.985847 -6.630883 0
M  V30 12 H 11.731160 8.696576 -7.206746 0
M  V30 13 H 12.591288 7.743129 -1.522050 0
M  V30 14 H 11.029591 5.990275 -5.072341 0
M  V30 15 H 11.803033 5.791573 -2.704076 0
M  V30 END ATOM
M  V30 BEGIN BOND
M  V30 1 1 2 1
M  V30 2 1 3 2
M  V30 3 1 4 3
M  V30 4 1 5 1
M  V30 5 2 6 3
M  V30 6 2 7 5
M  V30 7 1 7 6
M  V30 8 1 8 1
M  V30 9 1 9 1
M  V30 10 1 10 4
M  V30 11 1 11 4
M  V30 12 1 12 4
M  V30 13 1 13 5
M  V30 14 1 14 6
M  V30 15 1 15 7
M  V30 END BOND
M  V30 END CTAB
M  END
>  <i_epik_Tot_Q>  (1) 
0

>  <i_epik_Tot_abs_Q>  (1) 
0

>  <i_i_glide_confnum>  (1) 
1

>  <i_i_glide_lignum>  (1) 
30

>  <i_i_glide_posenum>  (1) 
281

>  <i_i_glide_rotatable_bonds>  (1) 
0

>  <i_lp_mmshare_version>  (1) 
72125

>  <i_m_source_file_index>  (1) 
27

>  <i_f3d_flags>  (1) 
0

>  <num_sample>  (1) 
50

>  <b_lp_Chiralities_Consistent>  (1) 
1

>  <r_epik_Charging_Adjusted_Penalty>  (1) 
0

>  <r_epik_Ionization_Penalty>  (1) 
0

>  <r_epik_Ionization_Penalty_Charging>  (1) 
0

>  <r_epik_Ionization_Penalty_Neutral>  (1) 
0

>  <r_epik_State_Penalty>  (1) 
-0

>  <r_glide_ring_energy>  (1) 
0

>  <r_i_docking_score>  (1) 
-5.3100130644157391

>  <r_i_glide_ecoul>  (1) 
-1.1481173759469421

>  <r_i_glide_eff_state_penalty>  (1) 
-0

>  <r_i_glide_einternal>  (1) 
0

>  <r_i_glide_emodel>  (1) 
-23.760699560150769

>  <r_i_glide_emodel_strain>  (1) 
0.012902071354440992

>  <r_i_glide_energy>  (1) 
-17.952701732672423

>  <r_i_glide_erotb>  (1) 
0

>  <r_i_glide_esite>  (1) 
0

>  <r_i_glide_evdw>  (1) 
-16.804584356725481

>  <r_i_glide_gscore>  (1) 
-5.3100130644157391

>  <r_i_glide_gscore_strain>  (1) 
0

>  <r_i_glide_hbond>  (1) 
0

>  <r_i_glide_ligand_efficiency>  (1) 
-0.75857329491653414

>  <r_i_glide_ligand_efficiency_ln>  (1) 
-1.8025034015781303

>  <r_i_glide_ligand_efficiency_sa>  (1) 
-1.451098510264234

>  <r_i_glide_lipo>  (1) 
-1.692020429201595

>  <r_i_glide_metal>  (1) 
-0

>  <r_i_glide_rewards>  (1) 
-2.605545810985828

>  <r_lp_Energy>  (1) 
4.7929789999999999

>  <r_lp_tautomer_probability>  (1) 
1

>  <s_epik_cmdline>  (1) 
J2VwaWtfcHl0aG9uJywgJy1waHQnLCAnMS4wJywgJy1waCcsICc3LjQnLCAnLXRuJywgJzgnLCAnLW1hJywgJzUwMCcsICctaW1hZScsICc8aW5maWxlLm1hZT4nLCAnLW9tYWUnLCAnPG91dGZpbGUubWFlPic=

>  <s_epik_input>  (1) 
TzFbQ0gyXVtDSF09W0NIXVtDSF09QzFbQ0gzXQ==

>  <s_glide_docking_method>  (1) 
confgen

>  <s_i_glide_gridfile>  (1) 
gpcr_drd2_6luq_protein_autoprepared_prepared

>  <s_lp_Force_Field>  (1) 
S-OPLS

>  <s_lp_Variant>  (1) 
Pocket2Mol_26-1

>  <s_m_source_file>  (1) 
generated_generic_title2_ligand_Pocket2Mol_2026-06-23_prepared.sdf

>  <GenAI_Model>  (1) 
Pocket2Mol

>  <Protein>  (1) 
generic_title2

$$$$
Pocket2Mol_22
     RDKit          3D

  0  0  0  0  0  0  0  0  0  0999 V3000
M  V30 BEGIN CTAB
M  V30 COUNTS 11 11 0 0 1
M  V30 BEGIN ATOM
M  V30 1 N 12.314194 7.934898 -2.528097 0
M  V30 2 C 12.256786 9.069924 -3.268708 0
M  V30 3 C 11.775410 9.109584 -4.592864 0
M  V30 4 C 11.874753 6.793113 -3.113136 0
M  V30 5 C 11.375410 6.738516 -4.430661 0
M  V30 6 F 11.743420 10.274735 -5.280777 0
M  V30 7 C 11.326426 7.920858 -5.185035 0
M  V30 8 H 12.604495 9.972219 -2.788545 0
M  V30 9 H 11.924692 5.897790 -2.511444 0
M  V30 10 H 11.037151 5.803672 -4.851348 0
M  V30 11 H 10.949540 7.915456 -6.197503 0
M  V30 END ATOM
M  V30 BEGIN BOND
M  V30 1 2 2 1
M  V30 2 1 3 2
M  V30 3 1 4 1
M  V30 4 2 5 4
M  V30 5 1 6 3
M  V30 6 2 7 3
M  V30 7 1 7 5
M  V30 8 1 8 2
M  V30 9 1 9 4
M  V30 10 1 10 5
M  V30 11 1 11 7
M  V30 END BOND
M  V30 END CTAB
M  END
>  <i_epik_Tot_Q>  (1) 
0

>  <i_epik_Tot_abs_Q>  (1) 
0

>  <i_i_glide_confnum>  (1) 
1

>  <i_i_glide_lignum>  (1) 
26

>  <i_i_glide_posenum>  (1) 
322

>  <i_i_glide_rotatable_bonds>  (1) 
0

>  <i_lp_mmshare_version>  (1) 
72125

>  <i_m_source_file_index>  (1) 
23

>  <i_f3d_flags>  (1) 
0

>  <num_sample>  (1) 
50

>  <b_lp_Chiralities_Consistent>  (1) 
1

>  <r_epik_Charging_Adjusted_Penalty>  (1) 
0

>  <r_epik_Ionization_Penalty>  (1) 
7.3223601380878174e-05

>  <r_epik_Ionization_Penalty_Charging>  (1) 
0

>  <r_epik_Ionization_Penalty_Neutral>  (1) 
7.3223601380878174e-05

>  <r_epik_State_Penalty>  (1) 
-0

>  <r_glide_ring_energy>  (1) 
0

>  <r_i_docking_score>  (1) 
-5.281478577107884

>  <r_i_glide_ecoul>  (1) 
-1.0710856523227341

>  <r_i_glide_eff_state_penalty>  (1) 
-0

>  <r_i_glide_einternal>  (1) 
0

>  <r_i_glide_emodel>  (1) 
-21.381128845445811

>  <r_i_glide_emodel_strain>  (1) 
0

>  <r_i_glide_energy>  (1) 
-15.985941316587487

>  <r_i_glide_erotb>  (1) 
0

>  <r_i_glide_esite>  (1) 
0

>  <r_i_glide_evdw>  (1) 
-14.914855664264753

>  <r_i_glide_gscore>  (1) 
-5.281478577107884

>  <r_i_glide_gscore_strain>  (1) 
0

>  <r_i_glide_hbond>  (1) 
0

>  <r_i_glide_ligand_efficiency>  (1) 
-0.75449693958684061

>  <r_i_glide_ligand_efficiency_ln>  (1) 
-1.7928172652521444

>  <r_i_glide_ligand_efficiency_sa>  (1) 
-1.4433007230420027

>  <r_i_glide_lipo>  (1) 
-1.4908952503734043

>  <r_i_glide_metal>  (1) 
-0

>  <r_i_glide_rewards>  (1) 
-2.8841776956728316

>  <r_lp_Energy>  (1) 
10.789624

>  <r_lp_tautomer_probability>  (1) 
1

>  <s_epik_cmdline>  (1) 
J2VwaWtfcHl0aG9uJywgJy1waHQnLCAnMS4wJywgJy1waCcsICc3LjQnLCAnLXRuJywgJzgnLCAnLW1hJywgJzUwMCcsICctaW1hZScsICc8aW5maWxlLm1hZT4nLCAnLW9tYWUnLCAnPG91dGZpbGUubWFlPic=

>  <s_epik_input>  (1) 
W2NIXTFbY0hdW2NIXW5bY0hdYzFG

>  <s_glide_docking_method>  (1) 
confgen

>  <s_i_glide_gridfile>  (1) 
gpcr_drd2_6luq_protein_autoprepared_prepared

>  <s_lp_Force_Field>  (1) 
S-OPLS

>  <s_lp_Variant>  (1) 
Pocket2Mol_22-1

>  <s_m_source_file>  (1) 
generated_generic_title2_ligand_Pocket2Mol_2026-06-23_prepared.sdf

>  <GenAI_Model>  (1) 
Pocket2Mol

>  <Protein>  (1) 
generic_title2

$$$$
Pocket2Mol_24
     RDKit          3D

  0  0  0  0  0  0  0  0  0  0999 V3000
M  V30 BEGIN CTAB
M  V30 COUNTS 15 15 0 0 1
M  V30 BEGIN ATOM
M  V30 1 N 9.380798 7.752111 -8.974126 0 CHG=1
M  V30 2 C 10.366723 7.905619 -9.913269 0
M  V30 3 C 11.556265 8.051505 -9.219005 0
M  V30 4 C 9.906464 7.798089 -7.763242 0
M  V30 5 C 12.953482 8.249828 -9.687231 0
M  V30 6 N 9.240716 7.684502 -6.607952 0
M  V30 7 N 11.217370 7.977652 -7.884979 0
M  V30 8 H 10.170985 7.901556 -10.972564 0
M  V30 9 H 12.989876 8.277985 -10.777001 0
M  V30 10 H 13.351218 9.189332 -9.304292 0
M  V30 11 H 13.588693 7.434921 -9.341899 0
M  V30 12 H 8.237054 7.547816 -6.572443 0
M  V30 13 H 9.694570 7.726078 -5.708901 0
M  V30 14 H 11.874827 8.050103 -7.119074 0
M  V30 15 H 8.382289 7.622927 -9.185032 0
M  V30 END ATOM
M  V30 BEGIN BOND
M  V30 1 1 2 1
M  V30 2 2 3 2
M  V30 3 2 4 1
M  V30 4 1 5 3
M  V30 5 1 6 4
M  V30 6 1 7 3
M  V30 7 1 7 4
M  V30 8 1 8 2
M  V30 9 1 9 5
M  V30 10 1 10 5
M  V30 11 1 11 5
M  V30 12 1 12 6
M  V30 13 1 13 6
M  V30 14 1 14 7
M  V30 15 1 15 1
M  V30 END BOND
M  V30 END CTAB
M  END
>  <i_epik_Tot_Q>  (1) 
1

>  <i_epik_Tot_abs_Q>  (1) 
1

>  <i_i_glide_confnum>  (1) 
1

>  <i_i_glide_lignum>  (1) 
28

>  <i_i_glide_posenum>  (1) 
245

>  <i_i_glide_rotatable_bonds>  (1) 
0

>  <i_lp_mmshare_version>  (1) 
72125

>  <i_m_source_file_index>  (1) 
25

>  <i_f3d_flags>  (1) 
0

>  <num_sample>  (1) 
50

>  <b_lp_Chiralities_Consistent>  (1) 
1

>  <r_epik_Charging_Adjusted_Penalty>  (1) 
0.028937443406262361

>  <r_epik_Ionization_Penalty>  (1) 
0.025358402846536118

>  <r_epik_Ionization_Penalty_Charging>  (1) 
0

>  <r_epik_Ionization_Penalty_Neutral>  (1) 
0.025358402846536118

>  <r_epik_State_Penalty>  (1) 
0.028937443406262361

>  <r_glide_ring_energy>  (1) 
0

>  <r_i_docking_score>  (1) 
-5.2750313246233445

>  <r_i_glide_ecoul>  (1) 
-9.4309177409616183

>  <r_i_glide_eff_state_penalty>  (1) 
0.028937443406262361

>  <r_i_glide_einternal>  (1) 
0

>  <r_i_glide_emodel>  (1) 
-26.608597856285854

>  <r_i_glide_emodel_strain>  (1) 
0

>  <r_i_glide_energy>  (1) 
-16.122885433706276

>  <r_i_glide_erotb>  (1) 
0

>  <r_i_glide_esite>  (1) 
-0.23308483947431047

>  <r_i_glide_evdw>  (1) 
-6.6919676927446572

>  <r_i_glide_gscore>  (1) 
-5.3039687680296064

>  <r_i_glide_gscore_strain>  (1) 
0

>  <r_i_glide_hbond>  (1) 
-0.30404741158366211

>  <r_i_glide_ligand_efficiency>  (1) 
-0.7535759035176206

>  <r_i_glide_ligand_efficiency_ln>  (1) 
-1.7906287217602095

>  <r_i_glide_ligand_efficiency_sa>  (1) 
-1.4415388444247339

>  <r_i_glide_lipo>  (1) 
-0.2376004711901587

>  <r_i_glide_metal>  (1) 
-0

>  <r_i_glide_rewards>  (1) 
-2.7800000000000002

>  <r_lp_Energy>  (1) 
-0.73901799999999995

>  <r_lp_tautomer_probability>  (1) 
0.99999998112300037

>  <s_epik_cmdline>  (1) 
J2VwaWtfcHl0aG9uJywgJy1waHQnLCAnMS4wJywgJy1waCcsICc3LjQnLCAnLXRuJywgJzgnLCAnLW1hJywgJzUwMCcsICctaW1hZScsICc8aW5maWxlLm1hZT4nLCAnLW9tYWUnLCAnPG91dGZpbGUubWFlPic=

>  <s_epik_input>  (1) 
W05IMl1jKFtuSF0xKW5bY0hdYzFbQ0gzXQ==

>  <s_glide_docking_method>  (1) 
confgen

>  <s_i_glide_gridfile>  (1) 
gpcr_drd2_6luq_protein_autoprepared_prepared

>  <s_lp_Force_Field>  (1) 
S-OPLS

>  <s_lp_Variant>  (1) 
Pocket2Mol_24-1

>  <s_m_source_file>  (1) 
generated_generic_title2_ligand_Pocket2Mol_2026-06-23_prepared.sdf

>  <GenAI_Model>  (1) 
Pocket2Mol

>  <Protein>  (1) 
generic_title2

$$$$
Pocket2Mol_25
     RDKit          3D

  0  0  0  0  0  0  0  0  0  0999 V3000
M  V30 BEGIN CTAB
M  V30 COUNTS 15 15 0 0 1
M  V30 BEGIN ATOM
M  V30 1 C 10.741614 7.435177 -5.830752 0
M  V30 2 O 10.575663 8.833566 -5.585025 0
M  V30 3 C 11.749312 9.513199 -5.129765 0
M  V30 4 C 12.307782 8.931899 -3.802662 0 CFG=1
M  V30 5 O 11.775550 9.590225 -2.679668 0
M  V30 6 C 11.375221 6.767049 -4.631411 0
M  V30 7 C 12.075626 7.442218 -3.715103 0
M  V30 8 H 11.359084 7.270226 -6.713600 0
M  V30 9 H 9.764447 6.992693 -6.025327 0
M  V30 10 H 11.537996 10.577866 -5.030998 0
M  V30 11 H 12.507240 9.427406 -5.909796 0
M  V30 12 H 13.375909 9.116796 -3.780216 0
M  V30 13 H 12.479728 9.800085 -2.081007 0
M  V30 14 H 11.241269 5.699428 -4.535229 0
M  V30 15 H 12.509481 6.922740 -2.873998 0
M  V30 END ATOM
M  V30 BEGIN BOND
M  V30 1 1 2 1
M  V30 2 1 3 2
M  V30 3 1 4 3
M  V30 4 1 5 4
M  V30 5 1 6 1
M  V30 6 1 7 4
M  V30 7 2 7 6
M  V30 8 1 8 1
M  V30 9 1 9 1
M  V30 10 1 10 3
M  V30 11 1 11 3
M  V30 12 1 4 12 CFG=3
M  V30 13 1 13 5
M  V30 14 1 14 6
M  V30 15 1 15 7
M  V30 END BOND
M  V30 END CTAB
M  END
>  <i_epik_Tot_Q>  (1) 
0

>  <i_epik_Tot_abs_Q>  (1) 
0

>  <i_i_glide_confnum>  (1) 
2

>  <i_i_glide_lignum>  (1) 
29

>  <i_i_glide_posenum>  (1) 
33

>  <i_i_glide_rotatable_bonds>  (1) 
1

>  <i_lp_mmshare_version>  (1) 
72125

>  <i_m_source_file_index>  (1) 
26

>  <i_f3d_flags>  (1) 
0

>  <num_sample>  (1) 
50

>  <b_lp_Chiralities_Consistent>  (1) 
1

>  <r_epik_Charging_Adjusted_Penalty>  (1) 
0

>  <r_epik_Ionization_Penalty>  (1) 
7.567869706951744e-07

>  <r_epik_Ionization_Penalty_Charging>  (1) 
0

>  <r_epik_Ionization_Penalty_Neutral>  (1) 
7.567869706951744e-07

>  <r_epik_State_Penalty>  (1) 
-0

>  <r_glide_ring_energy>  (1) 
0.3802776858136746

>  <r_i_docking_score>  (1) 
-5.2686887146284516

>  <r_i_glide_ecoul>  (1) 
-2.7381502085553806

>  <r_i_glide_eff_state_penalty>  (1) 
-0

>  <r_i_glide_einternal>  (1) 
0.59000639660096887

>  <r_i_glide_emodel>  (1) 
-24.264792536516982

>  <r_i_glide_emodel_strain>  (1) 
0.25745195574131063

>  <r_i_glide_energy>  (1) 
-18.164108365578102

>  <r_i_glide_erotb>  (1) 
0

>  <r_i_glide_esite>  (1) 
0

>  <r_i_glide_evdw>  (1) 
-15.42595815702272

>  <r_i_glide_gscore>  (1) 
-5.2686887146284516

>  <r_i_glide_gscore_strain>  (1) 
0

>  <r_i_glide_hbond>  (1) 
-0.16394162679487934

>  <r_i_glide_ligand_efficiency>  (1) 
-0.75266981637549313

>  <r_i_glide_ligand_efficiency_ln>  (1) 
-1.7884756995450117

>  <r_i_glide_ligand_efficiency_sa>  (1) 
-1.4398055620762489

>  <r_i_glide_lipo>  (1) 
-1.4298177392488594

>  <r_i_glide_metal>  (1) 
-0

>  <r_i_glide_rewards>  (1) 
-2.4929089094502692

>  <r_lp_Energy>  (1) 
2.4739009999999997

>  <r_lp_tautomer_probability>  (1) 
1

>  <s_epik_cmdline>  (1) 
J2VwaWtfcHl0aG9uJywgJy1waHQnLCAnMS4wJywgJy1waCcsICc3LjQnLCAnLXRuJywgJzgnLCAnLW1hJywgJzUwMCcsICctaW1hZScsICc8aW5maWxlLm1hZT4nLCAnLW9tYWUnLCAnPG91dGZpbGUubWFlPic=

>  <s_epik_input>  (1) 
W0NIXTE9W0NIXVtDSDJdT1tDSDJdW0NASF0xW09IXQ==

>  <s_glide_docking_method>  (1) 
confgen

>  <s_i_glide_gridfile>  (1) 
gpcr_drd2_6luq_protein_autoprepared_prepared

>  <s_lp_Force_Field>  (1) 
S-OPLS

>  <s_lp_Variant>  (1) 
Pocket2Mol_25-1

>  <s_m_source_file>  (1) 
generated_generic_title2_ligand_Pocket2Mol_2026-06-23_prepared.sdf

>  <GenAI_Model>  (1) 
Pocket2Mol

>  <Protein>  (1) 
generic_title2

$$$$
Pocket2Mol_23
     RDKit          3D

  0  0  0  0  0  0  0  0  0  0999 V3000
M  V30 BEGIN CTAB
M  V30 COUNTS 15 16 0 0 1
M  V30 BEGIN ATOM
M  V30 1 C 11.078053 8.473205 -6.116050 0
M  V30 2 O 11.812998 8.680413 -7.327915 0
M  V30 3 C 11.253395 7.929148 -8.409006 0 CFG=2
M  V30 4 C 9.786975 8.151740 -8.694269 0 CFG=1
M  V30 5 O 9.375410 7.724377 -9.981409 0
M  V30 6 C 10.300152 7.167914 -6.304794 0
M  V30 7 C 10.234482 7.012397 -7.793493 0 CFG=2
M  V30 8 H 11.731661 8.460764 -5.241621 0
M  V30 9 H 10.387123 9.308130 -5.999802 0
M  V30 10 H 11.948537 7.556935 -9.166000 0
M  V30 11 H 9.263451 9.014076 -8.288209 0
M  V30 12 H 8.414036 7.590254 -9.932776 0
M  V30 13 H 10.844744 6.324941 -5.878952 0
M  V30 14 H 9.303247 7.192703 -5.864578 0
M  V30 15 H 10.133000 5.998717 -8.186184 0
M  V30 END ATOM
M  V30 BEGIN BOND
M  V30 1 1 2 1
M  V30 2 1 3 2
M  V30 3 1 4 3
M  V30 4 1 5 4
M  V30 5 1 6 1
M  V30 6 1 7 3
M  V30 7 1 7 4
M  V30 8 1 7 6
M  V30 9 1 8 1
M  V30 10 1 9 1
M  V30 11 1 3 10 CFG=3
M  V30 12 1 4 11 CFG=1
M  V30 13 1 12 5
M  V30 14 1 13 6
M  V30 15 1 14 6
M  V30 16 1 7 15 CFG=1
M  V30 END BOND
M  V30 END CTAB
M  END
>  <i_epik_Tot_Q>  (1) 
0

>  <i_epik_Tot_abs_Q>  (1) 
0

>  <i_i_glide_confnum>  (1) 
1

>  <i_i_glide_lignum>  (1) 
27

>  <i_i_glide_posenum>  (1) 
393

>  <i_i_glide_rotatable_bonds>  (1) 
1

>  <i_lp_mmshare_version>  (1) 
72125

>  <i_m_source_file_index>  (1) 
24

>  <i_f3d_flags>  (1) 
0

>  <num_sample>  (1) 
50

>  <b_lp_Chiralities_Consistent>  (1) 
1

>  <r_epik_Charging_Adjusted_Penalty>  (1) 
0

>  <r_epik_Ionization_Penalty>  (1) 
4.3639151522347116e-08

>  <r_epik_Ionization_Penalty_Charging>  (1) 
0

>  <r_epik_Ionization_Penalty_Neutral>  (1) 
4.3639151522347116e-08

>  <r_epik_State_Penalty>  (1) 
-0

>  <r_glide_ring_energy>  (1) 
0

>  <r_i_docking_score>  (1) 
-5.2611052530399078

>  <r_i_glide_ecoul>  (1) 
-7.6787398285375268

>  <r_i_glide_eff_state_penalty>  (1) 
-0

>  <r_i_glide_einternal>  (1) 
0.19849089009687215

>  <r_i_glide_emodel>  (1) 
-26.401746795477663

>  <r_i_glide_emodel_strain>  (1) 
0

>  <r_i_glide_energy>  (1) 
-19.384318510291845

>  <r_i_glide_erotb>  (1) 
0

>  <r_i_glide_esite>  (1) 
0

>  <r_i_glide_evdw>  (1) 
-11.705578681754318

>  <r_i_glide_gscore>  (1) 
-5.2611052530399078

>  <r_i_glide_gscore_strain>  (1) 
0

>  <r_i_glide_hbond>  (1) 
-0.16

>  <r_i_glide_ligand_efficiency>  (1) 
-0.7515864647199868

>  <r_i_glide_ligand_efficiency_ln>  (1) 
-1.7859014657073045

>  <r_i_glide_ligand_efficiency_sa>  (1) 
-1.437733184912523

>  <r_i_glide_lipo>  (1) 
-0.7056820113382295

>  <r_i_glide_metal>  (1) 
-0

>  <r_i_glide_rewards>  (1) 
-2.6583333333333332

>  <r_lp_Energy>  (1) 
3.2309049999999999

>  <r_lp_tautomer_probability>  (1) 
1

>  <s_epik_cmdline>  (1) 
J2VwaWtfcHl0aG9uJywgJy1waHQnLCAnMS4wJywgJy1waCcsICc3LjQnLCAnLXRuJywgJzgnLCAnLW1hJywgJzUwMCcsICctaW1hZScsICc8aW5maWxlLm1hZT4nLCAnLW9tYWUnLCAnPG91dGZpbGUubWFlPic=

>  <s_epik_input>  (1) 
TzFbQ0gyXVtDSDJdW0NIXShbQ0BIXTEyKVtDQEBIXTJbT0hd

>  <s_glide_docking_method>  (1) 
confgen

>  <s_i_glide_gridfile>  (1) 
gpcr_drd2_6luq_protein_autoprepared_prepared

>  <s_lp_Force_Field>  (1) 
S-OPLS

>  <s_lp_Variant>  (1) 
Pocket2Mol_23-1

>  <s_m_source_file>  (1) 
generated_generic_title2_ligand_Pocket2Mol_2026-06-23_prepared.sdf

>  <GenAI_Model>  (1) 
Pocket2Mol

>  <Protein>  (1) 
generic_title2

$$$$
Pocket2Mol_28
     RDKit          3D

  0  0  0  0  0  0  0  0  0  0999 V3000
M  V30 BEGIN CTAB
M  V30 COUNTS 18 18 0 0 1
M  V30 BEGIN ATOM
M  V30 1 C 12.481589 7.532864 -2.985379 0
M  V30 2 O 11.375411 6.790218 -3.480984 0
M  V30 3 C 11.283253 6.711520 -4.900826 0
M  V30 4 C 10.967957 8.033816 -5.638806 0
M  V30 5 O 11.201207 7.845369 -7.019604 0
M  V30 6 C 12.175449 9.034630 -2.835314 0
M  V30 7 C 11.758593 9.275614 -5.185309 0
M  V30 8 O 11.375410 9.601500 -3.863407 0
M  V30 9 H 12.728982 7.134988 -2.001111 0
M  V30 10 H 13.375336 7.374782 -3.585039 0
M  V30 11 H 10.483807 6.003707 -5.120865 0
M  V30 12 H 12.175410 6.239455 -5.297002 0
M  V30 13 H 9.905073 8.250994 -5.533407 0
M  V30 14 H 10.547750 7.248809 -7.356566 0
M  V30 15 H 11.660264 9.211011 -1.891339 0
M  V30 16 H 13.111563 9.589487 -2.784936 0
M  V30 17 H 12.840495 9.190200 -5.291448 0
M  V30 18 H 11.466068 10.120092 -5.810823 0
M  V30 END ATOM
M  V30 BEGIN BOND
M  V30 1 1 2 1
M  V30 2 1 3 2
M  V30 3 1 4 3
M  V30 4 1 5 4
M  V30 5 1 6 1
M  V30 6 1 7 4
M  V30 7 1 8 6
M  V30 8 1 8 7
M  V30 9 1 9 1
M  V30 10 1 10 1
M  V30 11 1 11 3
M  V30 12 1 12 3
M  V30 13 1 13 4
M  V30 14 1 14 5
M  V30 15 1 15 6
M  V30 16 1 16 6
M  V30 17 1 17 7
M  V30 18 1 18 7
M  V30 END BOND
M  V30 END CTAB
M  END
>  <i_epik_Tot_Q>  (1) 
0

>  <i_epik_Tot_abs_Q>  (1) 
0

>  <i_i_glide_confnum>  (1) 
2

>  <i_i_glide_lignum>  (1) 
32

>  <i_i_glide_posenum>  (1) 
90

>  <i_i_glide_rotatable_bonds>  (1) 
1

>  <i_lp_mmshare_version>  (1) 
72125

>  <i_m_source_file_index>  (1) 
29

>  <i_f3d_flags>  (1) 
0

>  <num_sample>  (1) 
50

>  <b_lp_Chiralities_Consistent>  (1) 
1

>  <r_epik_Charging_Adjusted_Penalty>  (1) 
0

>  <r_epik_Ionization_Penalty>  (1) 
1.4561355789117501e-07

>  <r_epik_Ionization_Penalty_Charging>  (1) 
0

>  <r_epik_Ionization_Penalty_Neutral>  (1) 
1.4561355789117501e-07

>  <r_epik_State_Penalty>  (1) 
-0

>  <r_glide_ring_energy>  (1) 
0.00017037653096552691

>  <r_i_docking_score>  (1) 
-5.2506403651654097

>  <r_i_glide_ecoul>  (1) 
-1.2046210101715922

>  <r_i_glide_eff_state_penalty>  (1) 
-0

>  <r_i_glide_einternal>  (1) 
0.74896412700369452

>  <r_i_glide_emodel>  (1) 
-26.568408132643562

>  <r_i_glide_emodel_strain>  (1) 
0.0017343272345105021

>  <r_i_glide_energy>  (1) 
-19.57486330912651

>  <r_i_glide_erotb>  (1) 
0

>  <r_i_glide_esite>  (1) 
0

>  <r_i_glide_evdw>  (1) 
-18.370242298954917

>  <r_i_glide_gscore>  (1) 
-5.2506403651654097

>  <r_i_glide_gscore_strain>  (1) 
0

>  <r_i_glide_hbond>  (1) 
0

>  <r_i_glide_ligand_efficiency>  (1) 
-0.65633004564567621

>  <r_i_glide_ligand_efficiency_ln>  (1) 
-1.7050625232200982

>  <r_i_glide_ligand_efficiency_sa>  (1) 
-1.3126600912913526

>  <r_i_glide_lipo>  (1) 
-1.5625826338385913

>  <r_i_glide_metal>  (1) 
-0

>  <r_i_glide_rewards>  (1) 
-2.5888524648533333

>  <r_lp_Energy>  (1) 
13.809562999999999

>  <r_lp_tautomer_probability>  (1) 
1

>  <s_epik_cmdline>  (1) 
J2VwaWtfcHl0aG9uJywgJy1waHQnLCAnMS4wJywgJy1waCcsICc3LjQnLCAnLXRuJywgJzgnLCAnLW1hJywgJzUwMCcsICctaW1hZScsICc8aW5maWxlLm1hZT4nLCAnLW9tYWUnLCAnPG91dGZpbGUubWFlPic=

>  <s_epik_input>  (1) 
W0NIMl0xT1tDSDJdW0NIMl1PW0NIMl1bQ0hdMVtPSF0=

>  <s_glide_docking_method>  (1) 
confgen

>  <s_i_glide_gridfile>  (1) 
gpcr_drd2_6luq_protein_autoprepared_prepared

>  <s_lp_Force_Field>  (1) 
S-OPLS

>  <s_lp_Variant>  (1) 
Pocket2Mol_28-1

>  <s_m_source_file>  (1) 
generated_generic_title2_ligand_Pocket2Mol_2026-06-23_prepared.sdf

>  <GenAI_Model>  (1) 
Pocket2Mol

>  <Protein>  (1) 
generic_title2

$$$$
Pocket2Mol_34
     RDKit          3D

  0  0  0  0  0  0  0  0  0  0999 V3000
M  V30 BEGIN CTAB
M  V30 COUNTS 16 17 0 0 1
M  V30 BEGIN ATOM
M  V30 1 C 12.430721 8.495640 -2.049454 0
M  V30 2 O 12.175511 9.590228 -3.013110 0
M  V30 3 C 11.782988 8.899850 -4.101655 0
M  V30 4 C 11.775410 7.565712 -3.985033 0
M  V30 5 C 11.370475 6.762276 -5.062647 0
M  V30 6 N 10.976255 7.283391 -6.255278 0
M  V30 7 C 10.987702 8.644580 -6.357259 0
M  V30 8 C 11.387321 9.497213 -5.301334 0
M  V30 9 C 12.192573 7.045144 -2.682982 0
M  V30 10 H 13.451671 8.587283 -1.680218 0
M  V30 11 H 11.775410 8.637285 -1.189213 0
M  V30 12 H 11.357251 5.686574 -4.974590 0
M  V30 13 H 10.670943 9.057589 -7.303315 0
M  V30 14 H 11.382836 10.570702 -5.416965 0
M  V30 15 H 11.393603 6.486338 -2.194321 0
M  V30 16 H 13.102479 6.450340 -2.751409 0
M  V30 END ATOM
M  V30 BEGIN BOND
M  V30 1 1 2 1
M  V30 2 1 3 2
M  V30 3 2 4 3
M  V30 4 1 5 4
M  V30 5 2 6 5
M  V30 6 1 7 6
M  V30 7 1 8 3
M  V30 8 2 8 7
M  V30 9 1 9 1
M  V30 10 1 9 4
M  V30 11 1 10 1
M  V30 12 1 11 1
M  V30 13 1 12 5
M  V30 14 1 13 7
M  V30 15 1 14 8
M  V30 16 1 15 9
M  V30 17 1 16 9
M  V30 END BOND
M  V30 END CTAB
M  END
>  <i_epik_Tot_Q>  (1) 
0

>  <i_epik_Tot_abs_Q>  (1) 
0

>  <i_i_glide_confnum>  (1) 
1

>  <i_i_glide_lignum>  (1) 
39

>  <i_i_glide_posenum>  (1) 
165

>  <i_i_glide_rotatable_bonds>  (1) 
0

>  <i_lp_mmshare_version>  (1) 
72125

>  <i_m_source_file_index>  (1) 
35

>  <i_f3d_flags>  (1) 
0

>  <num_sample>  (1) 
50

>  <b_lp_Chiralities_Consistent>  (1) 
1

>  <r_epik_Charging_Adjusted_Penalty>  (1) 
0.44367302241175416

>  <r_epik_Ionization_Penalty>  (1) 
0.4436730224117541

>  <r_epik_Ionization_Penalty_Charging>  (1) 
0

>  <r_epik_Ionization_Penalty_Neutral>  (1) 
0.4436730224117541

>  <r_epik_State_Penalty>  (1) 
0.44367302241175416

>  <r_glide_ring_energy>  (1) 
0

>  <r_i_docking_score>  (1) 
-5.2502649583032692

>  <r_i_glide_ecoul>  (1) 
0.025378896753100455

>  <r_i_glide_eff_state_penalty>  (1) 
0.44367302241175416

>  <r_i_glide_einternal>  (1) 
0

>  <r_i_glide_emodel>  (1) 
-28.249506100271599

>  <r_i_glide_emodel_strain>  (1) 
0

>  <r_i_glide_energy>  (1) 
-20.727736035533731

>  <r_i_glide_erotb>  (1) 
0

>  <r_i_glide_esite>  (1) 
0

>  <r_i_glide_evdw>  (1) 
-20.753114932286831

>  <r_i_glide_gscore>  (1) 
-5.693937980715023

>  <r_i_glide_gscore_strain>  (1) 
0

>  <r_i_glide_hbond>  (1) 
0

>  <r_i_glide_ligand_efficiency>  (1) 
-0.58336277314480767

>  <r_i_glide_ligand_efficiency_ln>  (1) 
-1.6421320527560652

>  <r_i_glide_ligand_efficiency_sa>  (1) 
-1.2134434673892125

>  <r_i_glide_lipo>  (1) 
-2.0017557352803133

>  <r_i_glide_metal>  (1) 
-0

>  <r_i_glide_rewards>  (1) 
-2.6583333333333332

>  <r_lp_Energy>  (1) 
12.810587999999999

>  <s_epik_cmdline>  (1) 
J2VwaWtfcHl0aG9uJywgJy1waHQnLCAnMS4wJywgJy1waCcsICc3LjQnLCAnLXRuJywgJzgnLCAnLW1hJywgJzUwMCcsICctaW1hZScsICc8aW5maWxlLm1hZT4nLCAnLW9tYWUnLCAnPG91dGZpbGUubWFlPic=

>  <s_epik_input>  (1) 
TzFbQ0gyXVtDSDJdYyhjMTIpW2NIXW5bY0hdW2NIXTI=

>  <s_glide_docking_method>  (1) 
confgen

>  <s_i_glide_gridfile>  (1) 
gpcr_drd2_6luq_protein_autoprepared_prepared

>  <s_lp_Force_Field>  (1) 
S-OPLS

>  <s_lp_Variant>  (1) 
Pocket2Mol_34-2

>  <s_m_source_file>  (1) 
generated_generic_title2_ligand_Pocket2Mol_2026-06-23_prepared.sdf

>  <GenAI_Model>  (1) 
Pocket2Mol

>  <Protein>  (1) 
generic_title2

$$$$
Pocket2Mol_44
     RDKit          3D

  0  0  0  0  0  0  0  0  0  0999 V3000
M  V30 BEGIN CTAB
M  V30 COUNTS 14 15 0 0 1
M  V30 BEGIN ATOM
M  V30 1 C 9.816849 7.459202 -7.373197 0
M  V30 2 O 10.199743 6.451224 -6.385183 0
M  V30 3 C 10.883167 7.229174 -5.543055 0
M  V30 4 C 10.958596 8.498763 -5.901011 0
M  V30 5 C 11.649465 9.426613 -5.103557 0
M  V30 6 N 12.264441 9.073315 -3.938281 0
M  V30 7 C 12.175370 7.753987 -3.585407 0
M  V30 8 C 11.487192 6.790204 -4.364545 0
M  V30 9 O 10.336009 8.790224 -7.045283 0
M  V30 10 H 10.196529 7.158461 -8.351759 0
M  V30 11 H 8.727639 7.502746 -7.423680 0
M  V30 12 H 11.713987 10.465157 -5.392876 0
M  V30 13 H 12.662584 7.468428 -2.663789 0
M  V30 14 H 11.432266 5.754855 -4.060532 0
M  V30 END ATOM
M  V30 BEGIN BOND
M  V30 1 1 2 1
M  V30 2 1 3 2
M  V30 3 2 4 3
M  V30 4 1 5 4
M  V30 5 2 6 5
M  V30 6 1 7 6
M  V30 7 1 8 3
M  V30 8 2 8 7
M  V30 9 1 9 1
M  V30 10 1 9 4
M  V30 11 1 10 1
M  V30 12 1 11 1
M  V30 13 1 12 5
M  V30 14 1 13 7
M  V30 15 1 14 8
M  V30 END BOND
M  V30 END CTAB
M  END
>  <i_epik_Tot_Q>  (1) 
0

>  <i_epik_Tot_abs_Q>  (1) 
0

>  <i_i_glide_confnum>  (1) 
1

>  <i_i_glide_lignum>  (1) 
49

>  <i_i_glide_posenum>  (1) 
286

>  <i_i_glide_rotatable_bonds>  (1) 
0

>  <i_lp_mmshare_version>  (1) 
72125

>  <i_m_source_file_index>  (1) 
45

>  <i_f3d_flags>  (1) 
0

>  <num_sample>  (1) 
50

>  <b_lp_Chiralities_Consistent>  (1) 
1

>  <r_epik_Charging_Adjusted_Penalty>  (1) 
0.069790075728531922

>  <r_epik_Ionization_Penalty>  (1) 
0.069790075728531936

>  <r_epik_Ionization_Penalty_Charging>  (1) 
0

>  <r_epik_Ionization_Penalty_Neutral>  (1) 
0.069790075728531936

>  <r_epik_State_Penalty>  (1) 
0.069790075728531922

>  <r_glide_ring_energy>  (1) 
0

>  <r_i_docking_score>  (1) 
-5.2345091470806411

>  <r_i_glide_ecoul>  (1) 
-1.0838278060774837

>  <r_i_glide_eff_state_penalty>  (1) 
0.069790075728531922

>  <r_i_glide_einternal>  (1) 
0

>  <r_i_glide_emodel>  (1) 
-27.344562849260093

>  <r_i_glide_emodel_strain>  (1) 
6.6280989585720818e-09

>  <r_i_glide_energy>  (1) 
-20.366536897357907

>  <r_i_glide_erotb>  (1) 
0

>  <r_i_glide_esite>  (1) 
-0.056955012846056342

>  <r_i_glide_evdw>  (1) 
-19.282709091280424

>  <r_i_glide_gscore>  (1) 
-5.3042992228091732

>  <r_i_glide_gscore_strain>  (1) 
0

>  <r_i_glide_hbond>  (1) 
0

>  <r_i_glide_ligand_efficiency>  (1) 
-0.58161212745340451

>  <r_i_glide_ligand_efficiency_ln>  (1) 
-1.6372040876283371

>  <r_i_glide_ligand_efficiency_sa>  (1) 
-1.2098019776066293

>  <r_i_glide_lipo>  (1) 
-1.403366638161897

>  <r_i_glide_metal>  (1) 
-0

>  <r_i_glide_rewards>  (1) 
-2.7172679463255753

>  <r_lp_Energy>  (1) 
21.238785

>  <r_lp_tautomer_probability>  (1) 
1

>  <s_epik_Chemistry_Notes>  (1) 
This compound contains an acetal/aminal-like group ( X-CH(R)-Y where X, Y are N, S, or O) that may be acid/base labile, releasing an aldehyde.

>  <s_epik_cmdline>  (1) 
J2VwaWtfcHl0aG9uJywgJy1waHQnLCAnMS4wJywgJy1waCcsICc3LjQnLCAnLXRuJywgJzgnLCAnLW1hJywgJzUwMCcsICctaW1hZScsICc8aW5maWxlLm1hZT4nLCAnLW9tYWUnLCAnPG91dGZpbGUubWFlPic=

>  <s_epik_input>  (1) 
TzFbQ0gyXU9jKGMxMilbY0hdbltjSF1bY0hdMg==

>  <s_glide_docking_method>  (1) 
confgen

>  <s_i_glide_gridfile>  (1) 
gpcr_drd2_6luq_protein_autoprepared_prepared

>  <s_lp_Force_Field>  (1) 
S-OPLS

>  <s_lp_Variant>  (1) 
Pocket2Mol_44-1

>  <s_m_source_file>  (1) 
generated_generic_title2_ligand_Pocket2Mol_2026-06-23_prepared.sdf

>  <GenAI_Model>  (1) 
Pocket2Mol

>  <Protein>  (1) 
generic_title2

$$$$
Pocket2Mol_44
     RDKit          3D

  0  0  0  0  0  0  0  0  0  0999 V3000
M  V30 BEGIN CTAB
M  V30 COUNTS 14 15 0 0 1
M  V30 BEGIN ATOM
M  V30 1 C 9.773871 7.468470 -7.392657 0
M  V30 2 O 10.324266 8.790227 -7.085172 0
M  V30 3 C 10.949476 8.497931 -5.943668 0
M  V30 4 C 10.857607 7.232541 -5.572617 0
M  V30 5 C 11.463925 6.790229 -4.385116 0
M  V30 6 N 12.175411 7.626148 -3.572815 0
M  V30 7 C 12.253810 8.932474 -3.973089 0
M  V30 8 C 11.653020 9.416276 -5.160926 0
M  V30 9 O 10.155396 6.459230 -6.403835 0
M  V30 10 H 8.684259 7.536791 -7.417036 0
M  V30 11 H 10.116982 7.154306 -8.379069 0
M  V30 12 H 11.388969 5.758762 -4.076454 0
M  V30 13 H 12.810257 9.598643 -3.330657 0
M  V30 14 H 11.734324 10.453477 -5.449705 0
M  V30 END ATOM
M  V30 BEGIN BOND
M  V30 1 1 2 1
M  V30 2 1 3 2
M  V30 3 2 4 3
M  V30 4 1 5 4
M  V30 5 2 6 5
M  V30 6 1 7 6
M  V30 7 1 8 3
M  V30 8 2 8 7
M  V30 9 1 9 1
M  V30 10 1 9 4
M  V30 11 1 10 1
M  V30 12 1 11 1
M  V30 13 1 12 5
M  V30 14 1 13 7
M  V30 15 1 14 8
M  V30 END BOND
M  V30 END CTAB
M  END
>  <i_epik_Tot_Q>  (1) 
0

>  <i_epik_Tot_abs_Q>  (1) 
0

>  <i_i_glide_confnum>  (1) 
1

>  <i_i_glide_lignum>  (1) 
49

>  <i_i_glide_posenum>  (1) 
243

>  <i_i_glide_rotatable_bonds>  (1) 
0

>  <i_lp_mmshare_version>  (1) 
72125

>  <i_m_source_file_index>  (1) 
45

>  <i_f3d_flags>  (1) 
0

>  <num_sample>  (1) 
50

>  <b_lp_Chiralities_Consistent>  (1) 
1

>  <r_epik_Charging_Adjusted_Penalty>  (1) 
0.069790075728531922

>  <r_epik_Ionization_Penalty>  (1) 
0.069790075728531936

>  <r_epik_Ionization_Penalty_Charging>  (1) 
0

>  <r_epik_Ionization_Penalty_Neutral>  (1) 
0.069790075728531936

>  <r_epik_State_Penalty>  (1) 
0.069790075728531922

>  <r_glide_ring_energy>  (1) 
0

>  <r_i_docking_score>  (1) 
-5.2233563904700997

>  <r_i_glide_ecoul>  (1) 
-0.88827349548192691

>  <r_i_glide_eff_state_penalty>  (1) 
0.069790075728531922

>  <r_i_glide_einternal>  (1) 
0

>  <r_i_glide_emodel>  (1) 
-27.276858167282651

>  <r_i_glide_emodel_strain>  (1) 
0

>  <r_i_glide_energy>  (1) 
-20.313504123338721

>  <r_i_glide_erotb>  (1) 
0

>  <r_i_glide_esite>  (1) 
-0.061934841974934388

>  <r_i_glide_evdw>  (1) 
-19.425230627856795

>  <r_i_glide_gscore>  (1) 
-5.2931464661986318

>  <r_i_glide_gscore_strain>  (1) 
0

>  <r_i_glide_hbond>  (1) 
0

>  <r_i_glide_ligand_efficiency>  (1) 
-0.58037293227445552

>  <r_i_glide_ligand_efficiency_ln>  (1) 
-1.6337158257497069

>  <r_i_glide_ligand_efficiency_sa>  (1) 
-1.2072243477612934

>  <r_i_glide_lipo>  (1) 
-1.404202771657459

>  <r_i_glide_metal>  (1) 
-0

>  <r_i_glide_rewards>  (1) 
-2.72250629685111

>  <r_lp_Energy>  (1) 
21.238785

>  <r_lp_tautomer_probability>  (1) 
1

>  <s_epik_Chemistry_Notes>  (1) 
This compound contains an acetal/aminal-like group ( X-CH(R)-Y where X, Y are N, S, or O) that may be acid/base labile, releasing an aldehyde.

>  <s_epik_cmdline>  (1) 
J2VwaWtfcHl0aG9uJywgJy1waHQnLCAnMS4wJywgJy1waCcsICc3LjQnLCAnLXRuJywgJzgnLCAnLW1hJywgJzUwMCcsICctaW1hZScsICc8aW5maWxlLm1hZT4nLCAnLW9tYWUnLCAnPG91dGZpbGUubWFlPic=

>  <s_epik_input>  (1) 
TzFbQ0gyXU9jKGMxMilbY0hdbltjSF1bY0hdMg==

>  <s_glide_docking_method>  (1) 
confgen

>  <s_i_glide_gridfile>  (1) 
gpcr_drd2_6luq_protein_autoprepared_prepared

>  <s_lp_Force_Field>  (1) 
S-OPLS

>  <s_lp_Variant>  (1) 
Pocket2Mol_44-1

>  <s_m_source_file>  (1) 
generated_generic_title2_ligand_Pocket2Mol_2026-06-23_prepared.sdf

>  <GenAI_Model>  (1) 
Pocket2Mol

>  <Protein>  (1) 
generic_title2

$$$$
Pocket2Mol_28
     RDKit          3D

  0  0  0  0  0  0  0  0  0  0999 V3000
M  V30 BEGIN CTAB
M  V30 COUNTS 18 18 0 0 1
M  V30 BEGIN ATOM
M  V30 1 C 11.114805 8.326716 -5.955954 0
M  V30 2 O 9.799477 8.096388 -6.441240 0
M  V30 3 C 9.709131 7.297467 -7.619048 0
M  V30 4 C 10.040476 8.116678 -8.880830 0
M  V30 5 O 9.375749 7.548656 -10.004000 0
M  V30 6 C 11.960035 9.122844 -6.957193 0
M  V30 7 C 11.556235 8.195919 -9.162329 0
M  V30 8 O 12.400004 8.279662 -8.011909 0
M  V30 9 H 11.013684 8.925436 -5.049900 0
M  V30 10 H 11.610732 7.402806 -5.646416 0
M  V30 11 H 8.667313 6.988838 -7.682492 0
M  V30 12 H 10.296803 6.378533 -7.554725 0
M  V30 13 H 9.647624 9.128403 -8.760327 0
M  V30 14 H 8.412179 7.590232 -9.854880 0
M  V30 15 H 11.422807 9.989792 -7.315991 0
M  V30 16 H 12.843899 9.503493 -6.444423 0
M  V30 17 H 11.874484 7.304401 -9.702401 0
M  V30 18 H 11.759633 9.033494 -9.830005 0
M  V30 END ATOM
M  V30 BEGIN BOND
M  V30 1 1 2 1
M  V30 2 1 3 2
M  V30 3 1 4 3
M  V30 4 1 5 4
M  V30 5 1 6 1
M  V30 6 1 7 4
M  V30 7 1 8 6
M  V30 8 1 8 7
M  V30 9 1 9 1
M  V30 10 1 10 1
M  V30 11 1 11 3
M  V30 12 1 12 3
M  V30 13 1 13 4
M  V30 14 1 14 5
M  V30 15 1 15 6
M  V30 16 1 16 6
M  V30 17 1 17 7
M  V30 18 1 18 7
M  V30 END BOND
M  V30 END CTAB
M  END
>  <i_epik_Tot_Q>  (1) 
0

>  <i_epik_Tot_abs_Q>  (1) 
0

>  <i_i_glide_confnum>  (1) 
5

>  <i_i_glide_lignum>  (1) 
32

>  <i_i_glide_posenum>  (1) 
227

>  <i_i_glide_rotatable_bonds>  (1) 
1

>  <i_lp_mmshare_version>  (1) 
72125

>  <i_m_source_file_index>  (1) 
29

>  <i_f3d_flags>  (1) 
0

>  <num_sample>  (1) 
50

>  <b_lp_Chiralities_Consistent>  (1) 
1

>  <r_epik_Charging_Adjusted_Penalty>  (1) 
0

>  <r_epik_Ionization_Penalty>  (1) 
1.4561355789117501e-07

>  <r_epik_Ionization_Penalty_Charging>  (1) 
0

>  <r_epik_Ionization_Penalty_Neutral>  (1) 
1.4561355789117501e-07

>  <r_epik_State_Penalty>  (1) 
-0

>  <r_glide_ring_energy>  (1) 
0.098590567758912701

>  <r_i_docking_score>  (1) 
-5.2083514592234605

>  <r_i_glide_ecoul>  (1) 
-7.1751874523791663

>  <r_i_glide_eff_state_penalty>  (1) 
-0

>  <r_i_glide_einternal>  (1) 
0.32514929212626087

>  <r_i_glide_emodel>  (1) 
-27.442840805693056

>  <r_i_glide_emodel_strain>  (1) 
0

>  <r_i_glide_energy>  (1) 
-20.295010643032253

>  <r_i_glide_erotb>  (1) 
0

>  <r_i_glide_esite>  (1) 
0

>  <r_i_glide_evdw>  (1) 
-13.119823190653086

>  <r_i_glide_gscore>  (1) 
-5.2083514592234605

>  <r_i_glide_gscore_strain>  (1) 
0

>  <r_i_glide_hbond>  (1) 
-0.16

>  <r_i_glide_ligand_efficiency>  (1) 
-0.65104393240293257

>  <r_i_glide_ligand_efficiency_ln>  (1) 
-1.6913298689808232

>  <r_i_glide_ligand_efficiency_sa>  (1) 
-1.3020878648058654

>  <r_i_glide_lipo>  (1) 
-0.71875491925989221

>  <r_i_glide_metal>  (1) 
-0

>  <r_i_glide_rewards>  (1) 
-2.5973272625740393

>  <r_lp_Energy>  (1) 
13.809562999999999

>  <r_lp_tautomer_probability>  (1) 
1

>  <s_epik_cmdline>  (1) 
J2VwaWtfcHl0aG9uJywgJy1waHQnLCAnMS4wJywgJy1waCcsICc3LjQnLCAnLXRuJywgJzgnLCAnLW1hJywgJzUwMCcsICctaW1hZScsICc8aW5maWxlLm1hZT4nLCAnLW9tYWUnLCAnPG91dGZpbGUubWFlPic=

>  <s_epik_input>  (1) 
W0NIMl0xT1tDSDJdW0NIMl1PW0NIMl1bQ0hdMVtPSF0=

>  <s_glide_docking_method>  (1) 
confgen

>  <s_i_glide_gridfile>  (1) 
gpcr_drd2_6luq_protein_autoprepared_prepared

>  <s_lp_Force_Field>  (1) 
S-OPLS

>  <s_lp_Variant>  (1) 
Pocket2Mol_28-1

>  <s_m_source_file>  (1) 
generated_generic_title2_ligand_Pocket2Mol_2026-06-23_prepared.sdf

>  <GenAI_Model>  (1) 
Pocket2Mol

>  <Protein>  (1) 
generic_title2

$$$$
Pocket2Mol_22
     RDKit          3D

  0  0  0  0  0  0  0  0  0  0999 V3000
M  V30 BEGIN CTAB
M  V30 COUNTS 11 11 0 0 1
M  V30 BEGIN ATOM
M  V30 1 N 11.877953 9.162572 -4.690867 0
M  V30 2 C 12.404502 9.118867 -3.442708 0
M  V30 3 C 12.440743 7.958278 -2.653615 0
M  V30 4 C 11.375410 8.004934 -5.185023 0
M  V30 5 C 11.375408 6.790232 -4.468817 0
M  V30 6 F 12.975347 7.990227 -1.412396 0
M  V30 7 C 11.915450 6.770256 -3.174095 0
M  V30 8 H 12.809798 10.035197 -3.063814 0
M  V30 9 H 10.962195 8.049782 -6.181887 0
M  V30 10 H 10.961765 5.894112 -4.906419 0
M  V30 11 H 11.928158 5.859208 -2.593972 0
M  V30 END ATOM
M  V30 BEGIN BOND
M  V30 1 2 2 1
M  V30 2 1 3 2
M  V30 3 1 4 1
M  V30 4 2 5 4
M  V30 5 1 6 3
M  V30 6 2 7 3
M  V30 7 1 7 5
M  V30 8 1 8 2
M  V30 9 1 9 4
M  V30 10 1 10 5
M  V30 11 1 11 7
M  V30 END BOND
M  V30 END CTAB
M  END
>  <i_epik_Tot_Q>  (1) 
0

>  <i_epik_Tot_abs_Q>  (1) 
0

>  <i_i_glide_confnum>  (1) 
1

>  <i_i_glide_lignum>  (1) 
26

>  <i_i_glide_posenum>  (1) 
313

>  <i_i_glide_rotatable_bonds>  (1) 
0

>  <i_lp_mmshare_version>  (1) 
72125

>  <i_m_source_file_index>  (1) 
23

>  <i_f3d_flags>  (1) 
0

>  <num_sample>  (1) 
50

>  <b_lp_Chiralities_Consistent>  (1) 
1

>  <r_epik_Charging_Adjusted_Penalty>  (1) 
0

>  <r_epik_Ionization_Penalty>  (1) 
7.3223601380878174e-05

>  <r_epik_Ionization_Penalty_Charging>  (1) 
0

>  <r_epik_Ionization_Penalty_Neutral>  (1) 
7.3223601380878174e-05

>  <r_epik_State_Penalty>  (1) 
-0

>  <r_glide_ring_energy>  (1) 
0

>  <r_i_docking_score>  (1) 
-5.20781271037694

>  <r_i_glide_ecoul>  (1) 
-1.3997231926608595

>  <r_i_glide_eff_state_penalty>  (1) 
-0

>  <r_i_glide_einternal>  (1) 
0

>  <r_i_glide_emodel>  (1) 
-20.472910045815514

>  <r_i_glide_emodel_strain>  (1) 
0

>  <r_i_glide_energy>  (1) 
-15.152974391917356

>  <r_i_glide_erotb>  (1) 
0

>  <r_i_glide_esite>  (1) 
0

>  <r_i_glide_evdw>  (1) 
-13.753251199256496

>  <r_i_glide_gscore>  (1) 
-5.20781271037694

>  <r_i_glide_gscore_strain>  (1) 
0

>  <r_i_glide_hbond>  (1) 
0

>  <r_i_glide_ligand_efficiency>  (1) 
-0.74397324433956291

>  <r_i_glide_ligand_efficiency_ln>  (1) 
-1.7678111167263426

>  <r_i_glide_ligand_efficiency_sa>  (1) 
-1.4231696182454916

>  <r_i_glide_lipo>  (1) 
-1.4672961399045095

>  <r_i_glide_metal>  (1) 
-0

>  <r_i_glide_rewards>  (1) 
-2.8428955316104769

>  <r_lp_Energy>  (1) 
10.789624

>  <r_lp_tautomer_probability>  (1) 
1

>  <s_epik_cmdline>  (1) 
J2VwaWtfcHl0aG9uJywgJy1waHQnLCAnMS4wJywgJy1waCcsICc3LjQnLCAnLXRuJywgJzgnLCAnLW1hJywgJzUwMCcsICctaW1hZScsICc8aW5maWxlLm1hZT4nLCAnLW9tYWUnLCAnPG91dGZpbGUubWFlPic=

>  <s_epik_input>  (1) 
W2NIXTFbY0hdW2NIXW5bY0hdYzFG

>  <s_glide_docking_method>  (1) 
confgen

>  <s_i_glide_gridfile>  (1) 
gpcr_drd2_6luq_protein_autoprepared_prepared

>  <s_lp_Force_Field>  (1) 
S-OPLS

>  <s_lp_Variant>  (1) 
Pocket2Mol_22-1

>  <s_m_source_file>  (1) 
generated_generic_title2_ligand_Pocket2Mol_2026-06-23_prepared.sdf

>  <GenAI_Model>  (1) 
Pocket2Mol

>  <Protein>  (1) 
generic_title2

$$$$
Pocket2Mol_28
     RDKit          3D

  0  0  0  0  0  0  0  0  0  0999 V3000
M  V30 BEGIN CTAB
M  V30 COUNTS 18 18 0 0 1
M  V30 BEGIN ATOM
M  V30 1 C 11.365912 8.636456 -5.825715 0
M  V30 2 O 11.677707 9.193549 -7.098993 0
M  V30 3 C 11.701239 8.365907 -8.261677 0
M  V30 4 C 10.340656 7.771042 -8.661218 0
M  V30 5 O 9.385737 8.786634 -8.969339 0
M  V30 6 C 10.968430 7.152145 -5.780078 0
M  V30 7 C 9.755361 6.666227 -7.757827 0
M  V30 8 O 9.700273 6.991427 -6.380243 0
M  V30 9 H 12.234232 8.788819 -5.189661 0
M  V30 10 H 10.572692 9.242111 -5.383664 0
M  V30 11 H 12.454618 7.584537 -8.127025 0
M  V30 12 H 12.073186 8.986209 -9.082275 0
M  V30 13 H 10.498302 7.284364 -9.623341 0
M  V30 14 H 8.521363 8.389879 -9.185080 0
M  V30 15 H 11.724370 6.486494 -6.196339 0
M  V30 16 H 10.855403 6.857034 -4.739103 0
M  V30 17 H 8.742240 6.415300 -8.091684 0
M  V30 18 H 10.336336 5.752289 -7.875111 0
M  V30 END ATOM
M  V30 BEGIN BOND
M  V30 1 1 2 1
M  V30 2 1 3 2
M  V30 3 1 4 3
M  V30 4 1 5 4
M  V30 5 1 6 1
M  V30 6 1 7 4
M  V30 7 1 8 6
M  V30 8 1 8 7
M  V30 9 1 9 1
M  V30 10 1 10 1
M  V30 11 1 11 3
M  V30 12 1 12 3
M  V30 13 1 13 4
M  V30 14 1 14 5
M  V30 15 1 15 6
M  V30 16 1 16 6
M  V30 17 1 17 7
M  V30 18 1 18 7
M  V30 END BOND
M  V30 END CTAB
M  END
>  <i_epik_Tot_Q>  (1) 
0

>  <i_epik_Tot_abs_Q>  (1) 
0

>  <i_i_glide_confnum>  (1) 
11

>  <i_i_glide_lignum>  (1) 
32

>  <i_i_glide_posenum>  (1) 
24

>  <i_i_glide_rotatable_bonds>  (1) 
1

>  <i_lp_mmshare_version>  (1) 
72125

>  <i_m_source_file_index>  (1) 
29

>  <i_f3d_flags>  (1) 
0

>  <num_sample>  (1) 
50

>  <b_lp_Chiralities_Consistent>  (1) 
1

>  <r_epik_Charging_Adjusted_Penalty>  (1) 
0

>  <r_epik_Ionization_Penalty>  (1) 
1.4561355789117501e-07

>  <r_epik_Ionization_Penalty_Charging>  (1) 
0

>  <r_epik_Ionization_Penalty_Neutral>  (1) 
1.4561355789117501e-07

>  <r_epik_State_Penalty>  (1) 
-0

>  <r_glide_ring_energy>  (1) 
0.7060708747243859

>  <r_i_docking_score>  (1) 
-5.1948623614792417

>  <r_i_glide_ecoul>  (1) 
-5.4491849917693838

>  <r_i_glide_eff_state_penalty>  (1) 
-0

>  <r_i_glide_einternal>  (1) 
0.33672314882471233

>  <r_i_glide_emodel>  (1) 
-27.032205727461999

>  <r_i_glide_emodel_strain>  (1) 
1.0634221007863189

>  <r_i_glide_energy>  (1) 
-20.972517794928784

>  <r_i_glide_erotb>  (1) 
0

>  <r_i_glide_esite>  (1) 
0

>  <r_i_glide_evdw>  (1) 
-15.523332803159398

>  <r_i_glide_gscore>  (1) 
-5.1948623614792417

>  <r_i_glide_gscore_strain>  (1) 
0

>  <r_i_glide_hbond>  (1) 
-0.16

>  <r_i_glide_ligand_efficiency>  (1) 
-0.64935779518490522

>  <r_i_glide_ligand_efficiency_ln>  (1) 
-1.6869494975525476

>  <r_i_glide_ligand_efficiency_sa>  (1) 
-1.2987155903698107

>  <r_i_glide_lipo>  (1) 
-0.79609214353286539

>  <r_i_glide_metal>  (1) 
-0

>  <r_i_glide_rewards>  (1) 
-2.6452258290229986

>  <r_lp_Energy>  (1) 
13.809562999999999

>  <r_lp_tautomer_probability>  (1) 
1

>  <s_epik_cmdline>  (1) 
J2VwaWtfcHl0aG9uJywgJy1waHQnLCAnMS4wJywgJy1waCcsICc3LjQnLCAnLXRuJywgJzgnLCAnLW1hJywgJzUwMCcsICctaW1hZScsICc8aW5maWxlLm1hZT4nLCAnLW9tYWUnLCAnPG91dGZpbGUubWFlPic=

>  <s_epik_input>  (1) 
W0NIMl0xT1tDSDJdW0NIMl1PW0NIMl1bQ0hdMVtPSF0=

>  <s_glide_docking_method>  (1) 
confgen

>  <s_i_glide_gridfile>  (1) 
gpcr_drd2_6luq_protein_autoprepared_prepared

>  <s_lp_Force_Field>  (1) 
S-OPLS

>  <s_lp_Variant>  (1) 
Pocket2Mol_28-1

>  <s_m_source_file>  (1) 
generated_generic_title2_ligand_Pocket2Mol_2026-06-23_prepared.sdf

>  <GenAI_Model>  (1) 
Pocket2Mol

>  <Protein>  (1) 
generic_title2

$$$$
Pocket2Mol_28
     RDKit          3D

  0  0  0  0  0  0  0  0  0  0999 V3000
M  V30 BEGIN CTAB
M  V30 COUNTS 18 18 0 0 1
M  V30 BEGIN ATOM
M  V30 1 C 12.000635 9.334419 -6.548569 0
M  V30 2 O 11.836496 9.138987 -7.946512 0
M  V30 3 C 11.618570 7.821024 -8.436398 0
M  V30 4 C 10.137777 7.455971 -8.409510 0
M  V30 5 O 9.379363 8.371833 -9.168774 0
M  V30 6 C 11.105148 8.481216 -5.643331 0
M  V30 7 C 9.583859 7.224563 -7.005188 0
M  V30 8 O 9.781256 8.341937 -6.142270 0
M  V30 9 H 13.045075 9.192581 -6.279970 0
M  V30 10 H 11.851518 10.396466 -6.356855 0
M  V30 11 H 12.185578 7.094983 -7.860621 0
M  V30 12 H 11.974455 7.765502 -9.465662 0
M  V30 13 H 10.025074 6.515638 -8.945957 0
M  V30 14 H 8.449175 8.105700 -9.185084 0
M  V30 15 H 11.572056 7.516283 -5.439627 0
M  V30 16 H 11.046843 8.995763 -4.682282 0
M  V30 17 H 8.524183 7.021174 -7.086723 0
M  V30 18 H 10.002498 6.313144 -6.567498 0
M  V30 END ATOM
M  V30 BEGIN BOND
M  V30 1 1 2 1
M  V30 2 1 3 2
M  V30 3 1 4 3
M  V30 4 1 5 4
M  V30 5 1 6 1
M  V30 6 1 7 4
M  V30 7 1 8 6
M  V30 8 1 8 7
M  V30 9 1 9 1
M  V30 10 1 10 1
M  V30 11 1 11 3
M  V30 12 1 12 3
M  V30 13 1 13 4
M  V30 14 1 14 5
M  V30 15 1 15 6
M  V30 16 1 16 6
M  V30 17 1 17 7
M  V30 18 1 18 7
M  V30 END BOND
M  V30 END CTAB
M  END
>  <i_epik_Tot_Q>  (1) 
0

>  <i_epik_Tot_abs_Q>  (1) 
0

>  <i_i_glide_confnum>  (1) 
11

>  <i_i_glide_lignum>  (1) 
32

>  <i_i_glide_posenum>  (1) 
237

>  <i_i_glide_rotatable_bonds>  (1) 
1

>  <i_lp_mmshare_version>  (1) 
72125

>  <i_m_source_file_index>  (1) 
29

>  <i_f3d_flags>  (1) 
0

>  <num_sample>  (1) 
50

>  <b_lp_Chiralities_Consistent>  (1) 
1

>  <r_epik_Charging_Adjusted_Penalty>  (1) 
0

>  <r_epik_Ionization_Penalty>  (1) 
1.4561355789117501e-07

>  <r_epik_Ionization_Penalty_Charging>  (1) 
0

>  <r_epik_Ionization_Penalty_Neutral>  (1) 
1.4561355789117501e-07

>  <r_epik_State_Penalty>  (1) 
-0

>  <r_glide_ring_energy>  (1) 
0.7060708747243859

>  <r_i_docking_score>  (1) 
-5.1738006429507264

>  <r_i_glide_ecoul>  (1) 
-7.2556012050766219

>  <r_i_glide_eff_state_penalty>  (1) 
-0

>  <r_i_glide_einternal>  (1) 
0.32915298195449405

>  <r_i_glide_emodel>  (1) 
-26.247381001557436

>  <r_i_glide_emodel_strain>  (1) 
0.0019418114798490649

>  <r_i_glide_energy>  (1) 
-19.151989773576442

>  <r_i_glide_erotb>  (1) 
0

>  <r_i_glide_esite>  (1) 
0

>  <r_i_glide_evdw>  (1) 
-11.896388568499821

>  <r_i_glide_gscore>  (1) 
-5.1738006429507264

>  <r_i_glide_gscore_strain>  (1) 
0

>  <r_i_glide_hbond>  (1) 
-0.15846921270922629

>  <r_i_glide_ligand_efficiency>  (1) 
-0.6467250803688408

>  <r_i_glide_ligand_efficiency_ln>  (1) 
-1.6801100371362847

>  <r_i_glide_ligand_efficiency_sa>  (1) 
-1.2934501607376818

>  <r_i_glide_lipo>  (1) 
-0.76039807955596039

>  <r_i_glide_metal>  (1) 
-0

>  <r_i_glide_rewards>  (1) 
-2.5717737414990554

>  <r_lp_Energy>  (1) 
13.809562999999999

>  <r_lp_tautomer_probability>  (1) 
1

>  <s_epik_cmdline>  (1) 
J2VwaWtfcHl0aG9uJywgJy1waHQnLCAnMS4wJywgJy1waCcsICc3LjQnLCAnLXRuJywgJzgnLCAnLW1hJywgJzUwMCcsICctaW1hZScsICc8aW5maWxlLm1hZT4nLCAnLW9tYWUnLCAnPG91dGZpbGUubWFlPic=

>  <s_epik_input>  (1) 
W0NIMl0xT1tDSDJdW0NIMl1PW0NIMl1bQ0hdMVtPSF0=

>  <s_glide_docking_method>  (1) 
confgen

>  <s_i_glide_gridfile>  (1) 
gpcr_drd2_6luq_protein_autoprepared_prepared

>  <s_lp_Force_Field>  (1) 
S-OPLS

>  <s_lp_Variant>  (1) 
Pocket2Mol_28-1

>  <s_m_source_file>  (1) 
generated_generic_title2_ligand_Pocket2Mol_2026-06-23_prepared.sdf

>  <GenAI_Model>  (1) 
Pocket2Mol

>  <Protein>  (1) 
generic_title2

$$$$
Pocket2Mol_41
     RDKit          3D

  0  0  0  0  0  0  0  0  0  0999 V3000
M  V30 BEGIN CTAB
M  V30 COUNTS 23 24 0 0 1
M  V30 BEGIN ATOM
M  V30 1 C 12.542072 8.203371 -9.175184 0
M  V30 2 O 12.575984 8.182535 -7.752239 0
M  V30 3 C 11.264061 8.136172 -7.193993 0 CFG=2
M  V30 4 C 11.167062 9.276564 -6.171672 0
M  V30 5 C 10.976621 6.764527 -6.554180 0
M  V30 6 C 11.184732 8.786453 -9.513081 0
M  V30 7 C 9.689928 6.273756 -7.213910 0
M  V30 8 C 10.310887 8.255467 -8.394090 0 CFG=1
M  V30 9 C 9.790448 6.831036 -8.622215 0
M  V30 10 H 13.364467 8.789982 -9.584949 0
M  V30 11 H 12.621643 7.190351 -9.569462 0
M  V30 12 H 10.175400 9.320213 -5.724724 0
M  V30 13 H 11.886939 9.138633 -5.364649 0
M  V30 14 H 11.375422 10.241821 -6.631260 0
M  V30 15 H 11.785994 6.070441 -6.784863 0
M  V30 16 H 10.884379 6.803459 -5.468158 0
M  V30 17 H 11.247418 9.873056 -9.467017 0
M  V30 18 H 10.832196 8.500843 -10.504170 0
M  V30 19 H 9.592899 5.190227 -7.203090 0
M  V30 20 H 8.817889 6.693350 -6.708481 0
M  V30 21 H 9.465969 8.912667 -8.182885 0
M  V30 22 H 10.506371 6.236004 -9.188241 0
M  V30 23 H 8.848794 6.790225 -9.161438 0
M  V30 END ATOM
M  V30 BEGIN BOND
M  V30 1 1 2 1
M  V30 2 1 3 2
M  V30 3 1 3 4 CFG=1
M  V30 4 1 5 3
M  V30 5 1 6 1
M  V30 6 1 7 5
M  V30 7 1 8 3
M  V30 8 1 8 6
M  V30 9 1 9 7
M  V30 10 1 9 8
M  V30 11 1 10 1
M  V30 12 1 11 1
M  V30 13 1 12 4
M  V30 14 1 13 4
M  V30 15 1 14 4
M  V30 16 1 15 5
M  V30 17 1 16 5
M  V30 18 1 17 6
M  V30 19 1 18 6
M  V30 20 1 19 7
M  V30 21 1 20 7
M  V30 22 1 8 21 CFG=1
M  V30 23 1 22 9
M  V30 24 1 23 9
M  V30 END BOND
M  V30 END CTAB
M  END
>  <i_epik_Tot_Q>  (1) 
0

>  <i_epik_Tot_abs_Q>  (1) 
0

>  <i_i_glide_confnum>  (1) 
3

>  <i_i_glide_lignum>  (1) 
46

>  <i_i_glide_posenum>  (1) 
165

>  <i_i_glide_rotatable_bonds>  (1) 
0

>  <i_lp_mmshare_version>  (1) 
72125

>  <i_m_source_file_index>  (1) 
42

>  <i_f3d_flags>  (1) 
0

>  <num_sample>  (1) 
50

>  <b_lp_Chiralities_Consistent>  (1) 
1

>  <r_epik_Charging_Adjusted_Penalty>  (1) 
0

>  <r_epik_Ionization_Penalty>  (1) 
2.4347883345708157e-11

>  <r_epik_Ionization_Penalty_Charging>  (1) 
0

>  <r_epik_Ionization_Penalty_Neutral>  (1) 
2.4347883345708157e-11

>  <r_epik_State_Penalty>  (1) 
-0

>  <r_glide_ring_energy>  (1) 
1.1035134730129632

>  <r_i_docking_score>  (1) 
-5.1625742167100093

>  <r_i_glide_ecoul>  (1) 
-0.55265866638488581

>  <r_i_glide_eff_state_penalty>  (1) 
-0

>  <r_i_glide_einternal>  (1) 
0

>  <r_i_glide_emodel>  (1) 
-23.903624014894056

>  <r_i_glide_emodel_strain>  (1) 
0

>  <r_i_glide_energy>  (1) 
-18.353465673320418

>  <r_i_glide_erotb>  (1) 
0

>  <r_i_glide_esite>  (1) 
0

>  <r_i_glide_evdw>  (1) 
-17.800807006935532

>  <r_i_glide_gscore>  (1) 
-5.1625742167100093

>  <r_i_glide_gscore_strain>  (1) 
0

>  <r_i_glide_hbond>  (1) 
0

>  <r_i_glide_ligand_efficiency>  (1) 
-0.57361935741222325

>  <r_i_glide_ligand_efficiency_ln>  (1) 
-1.6147049079083549

>  <r_i_glide_ligand_efficiency_sa>  (1) 
-1.1931763459425941

>  <r_i_glide_lipo>  (1) 
-1.2044006371364901

>  <r_i_glide_metal>  (1) 
-0

>  <r_i_glide_rewards>  (1) 
-2.9852344292690103

>  <r_lp_Energy>  (1) 
5.4699619999999998

>  <r_lp_tautomer_probability>  (1) 
1

>  <s_epik_cmdline>  (1) 
J2VwaWtfcHl0aG9uJywgJy1waHQnLCAnMS4wJywgJy1waCcsICc3LjQnLCAnLXRuJywgJzgnLCAnLW1hJywgJzUwMCcsICctaW1hZScsICc8aW5maWxlLm1hZT4nLCAnLW9tYWUnLCAnPG91dGZpbGUubWFlPic=

>  <s_epik_input>  (1) 
TzFbQ0gyXVtDSDJdW0NASF0oW0NAXTEyW0NIM10pW0NIMl1bQ0gyXVtDSDJdMg==

>  <s_glide_docking_method>  (1) 
confgen

>  <s_i_glide_gridfile>  (1) 
gpcr_drd2_6luq_protein_autoprepared_prepared

>  <s_lp_Force_Field>  (1) 
S-OPLS

>  <s_lp_Variant>  (1) 
Pocket2Mol_41-1

>  <s_m_source_file>  (1) 
generated_generic_title2_ligand_Pocket2Mol_2026-06-23_prepared.sdf

>  <GenAI_Model>  (1) 
Pocket2Mol

>  <Protein>  (1) 
generic_title2

$$$$
Pocket2Mol_26
     RDKit          3D

  0  0  0  0  0  0  0  0  0  0999 V3000
M  V30 BEGIN CTAB
M  V30 COUNTS 15 15 0 0 1
M  V30 BEGIN ATOM
M  V30 1 C 12.009844 6.608299 -2.539478 0
M  V30 2 O 11.477004 6.390246 -3.873227 0
M  V30 3 C 11.375410 7.435288 -4.785191 0
M  V30 4 C 10.786336 7.020539 -6.114923 0
M  V30 5 C 12.439067 8.033357 -2.272369 0
M  V30 6 C 11.775434 8.685013 -4.471838 0
M  V30 7 C 12.320752 8.986400 -3.186009 0
M  V30 8 H 11.250130 6.324453 -1.810866 0
M  V30 9 H 12.862806 5.947308 -2.385022 0
M  V30 10 H 10.778656 7.849473 -6.823093 0
M  V30 11 H 11.366995 6.204028 -6.544921 0
M  V30 12 H 9.760519 6.676310 -5.978507 0
M  V30 13 H 12.850432 8.256399 -1.298733 0
M  V30 14 H 11.681538 9.472432 -5.205509 0
M  V30 15 H 12.636719 9.990227 -2.957036 0
M  V30 END ATOM
M  V30 BEGIN BOND
M  V30 1 1 2 1
M  V30 2 1 3 2
M  V30 3 1 4 3
M  V30 4 1 5 1
M  V30 5 2 6 3
M  V30 6 2 7 5
M  V30 7 1 7 6
M  V30 8 1 8 1
M  V30 9 1 9 1
M  V30 10 1 10 4
M  V30 11 1 11 4
M  V30 12 1 12 4
M  V30 13 1 13 5
M  V30 14 1 14 6
M  V30 15 1 15 7
M  V30 END BOND
M  V30 END CTAB
M  END
>  <i_epik_Tot_Q>  (1) 
0

>  <i_epik_Tot_abs_Q>  (1) 
0

>  <i_i_glide_confnum>  (1) 
1

>  <i_i_glide_lignum>  (1) 
30

>  <i_i_glide_posenum>  (1) 
33

>  <i_i_glide_rotatable_bonds>  (1) 
0

>  <i_lp_mmshare_version>  (1) 
72125

>  <i_m_source_file_index>  (1) 
27

>  <i_f3d_flags>  (1) 
0

>  <num_sample>  (1) 
50

>  <b_lp_Chiralities_Consistent>  (1) 
1

>  <r_epik_Charging_Adjusted_Penalty>  (1) 
0

>  <r_epik_Ionization_Penalty>  (1) 
0

>  <r_epik_Ionization_Penalty_Charging>  (1) 
0

>  <r_epik_Ionization_Penalty_Neutral>  (1) 
0

>  <r_epik_State_Penalty>  (1) 
-0

>  <r_glide_ring_energy>  (1) 
0

>  <r_i_docking_score>  (1) 
-5.1597333473583813

>  <r_i_glide_ecoul>  (1) 
0.045797462674398354

>  <r_i_glide_eff_state_penalty>  (1) 
-0

>  <r_i_glide_einternal>  (1) 
0

>  <r_i_glide_emodel>  (1) 
-23.103240229938475

>  <r_i_glide_emodel_strain>  (1) 
0.01124238439410874

>  <r_i_glide_energy>  (1) 
-17.458321140660725

>  <r_i_glide_erotb>  (1) 
0

>  <r_i_glide_esite>  (1) 
0

>  <r_i_glide_evdw>  (1) 
-17.504118603335122

>  <r_i_glide_gscore>  (1) 
-5.1597333473583813

>  <r_i_glide_gscore_strain>  (1) 
0

>  <r_i_glide_hbond>  (1) 
0

>  <r_i_glide_ligand_efficiency>  (1) 
-0.73710476390834023

>  <r_i_glide_ligand_efficiency_ln>  (1) 
-1.7514904006875398

>  <r_i_glide_ligand_efficiency_sa>  (1) 
-1.4100306878503439

>  <r_i_glide_lipo>  (1) 
-1.6450991976052729

>  <r_i_glide_metal>  (1) 
-0

>  <r_i_glide_rewards>  (1) 
-2.6462978389875116

>  <r_lp_Energy>  (1) 
4.7929789999999999

>  <r_lp_tautomer_probability>  (1) 
1

>  <s_epik_cmdline>  (1) 
J2VwaWtfcHl0aG9uJywgJy1waHQnLCAnMS4wJywgJy1waCcsICc3LjQnLCAnLXRuJywgJzgnLCAnLW1hJywgJzUwMCcsICctaW1hZScsICc8aW5maWxlLm1hZT4nLCAnLW9tYWUnLCAnPG91dGZpbGUubWFlPic=

>  <s_epik_input>  (1) 
TzFbQ0gyXVtDSF09W0NIXVtDSF09QzFbQ0gzXQ==

>  <s_glide_docking_method>  (1) 
confgen

>  <s_i_glide_gridfile>  (1) 
gpcr_drd2_6luq_protein_autoprepared_prepared

>  <s_lp_Force_Field>  (1) 
S-OPLS

>  <s_lp_Variant>  (1) 
Pocket2Mol_26-1

>  <s_m_source_file>  (1) 
generated_generic_title2_ligand_Pocket2Mol_2026-06-23_prepared.sdf

>  <GenAI_Model>  (1) 
Pocket2Mol

>  <Protein>  (1) 
generic_title2

$$$$
Pocket2Mol_13
     RDKit          3D

  0  0  0  0  0  0  0  0  0  0999 V3000
M  V30 BEGIN CTAB
M  V30 COUNTS 17 17 0 0 1
M  V30 BEGIN ATOM
M  V30 1 C 9.896729 7.893543 -7.519123 0
M  V30 2 O 10.890506 8.790272 -7.035121 0
M  V30 3 C 12.175410 8.526511 -7.585018 0
M  V30 4 C 12.167333 8.725699 -9.108271 0 CFG=1
M  V30 5 O 13.431550 8.390227 -9.636928 0
M  V30 6 C 9.775400 8.025487 -9.045485 0
M  V30 7 C 11.117623 7.821460 -9.738764 0
M  V30 8 H 10.145254 6.869377 -7.235881 0
M  V30 9 H 8.943882 8.130977 -7.045278 0
M  V30 10 H 12.472045 7.506473 -7.337520 0
M  V30 11 H 12.902940 9.190250 -7.118334 0
M  V30 12 H 11.940429 9.764183 -9.350798 0
M  V30 13 H 13.983709 9.164381 -9.585077 0
M  V30 14 H 9.057912 7.294053 -9.419497 0
M  V30 15 H 9.374206 9.008335 -9.294379 0
M  V30 16 H 11.030865 8.002551 -10.809491 0
M  V30 17 H 11.422570 6.790224 -9.610794 0
M  V30 END ATOM
M  V30 BEGIN BOND
M  V30 1 1 2 1
M  V30 2 1 3 2
M  V30 3 1 4 3
M  V30 4 1 5 4
M  V30 5 1 6 1
M  V30 6 1 7 4
M  V30 7 1 7 6
M  V30 8 1 8 1
M  V30 9 1 9 1
M  V30 10 1 10 3
M  V30 11 1 11 3
M  V30 12 1 4 12 CFG=1
M  V30 13 1 13 5
M  V30 14 1 14 6
M  V30 15 1 15 6
M  V30 16 1 16 7
M  V30 17 1 17 7
M  V30 END BOND
M  V30 END CTAB
M  END
>  <i_epik_Tot_Q>  (1) 
0

>  <i_epik_Tot_abs_Q>  (1) 
0

>  <i_i_glide_confnum>  (1) 
1

>  <i_i_glide_lignum>  (1) 
16

>  <i_i_glide_posenum>  (1) 
161

>  <i_i_glide_rotatable_bonds>  (1) 
1

>  <i_lp_mmshare_version>  (1) 
72125

>  <i_m_source_file_index>  (1) 
14

>  <i_f3d_flags>  (1) 
0

>  <num_sample>  (1) 
50

>  <b_lp_Chiralities_Consistent>  (1) 
1

>  <r_epik_Charging_Adjusted_Penalty>  (1) 
0

>  <r_epik_Ionization_Penalty>  (1) 
4.2263924331700322e-08

>  <r_epik_Ionization_Penalty_Charging>  (1) 
0

>  <r_epik_Ionization_Penalty_Neutral>  (1) 
4.2263924331700322e-08

>  <r_epik_State_Penalty>  (1) 
-0

>  <r_glide_ring_energy>  (1) 
0

>  <r_i_docking_score>  (1) 
-5.154397697534419

>  <r_i_glide_ecoul>  (1) 
-5.4183955519495957

>  <r_i_glide_eff_state_penalty>  (1) 
-0

>  <r_i_glide_einternal>  (1) 
0.82022950572638509

>  <r_i_glide_emodel>  (1) 
-24.278232543146665

>  <r_i_glide_emodel_strain>  (1) 
0.10226593598107403

>  <r_i_glide_energy>  (1) 
-18.256109644438219

>  <r_i_glide_erotb>  (1) 
0

>  <r_i_glide_esite>  (1) 
0

>  <r_i_glide_evdw>  (1) 
-12.837714092488623

>  <r_i_glide_gscore>  (1) 
-5.154397697534419

>  <r_i_glide_gscore_strain>  (1) 
0

>  <r_i_glide_hbond>  (1) 
-0.32000000000000001

>  <r_i_glide_ligand_efficiency>  (1) 
-0.73634252821920276

>  <r_i_glide_ligand_efficiency_ln>  (1) 
-1.7496791947939476

>  <r_i_glide_ligand_efficiency_sa>  (1) 
-1.4085725834319709

>  <r_i_glide_lipo>  (1) 
-0.77975266011754962

>  <r_i_glide_metal>  (1) 
-0

>  <r_i_glide_rewards>  (1) 
-2.6000000000000001

>  <r_lp_Energy>  (1) 
6.7642049999999996

>  <r_lp_tautomer_probability>  (1) 
1

>  <s_epik_cmdline>  (1) 
J2VwaWtfcHl0aG9uJywgJy1waHQnLCAnMS4wJywgJy1waCcsICc3LjQnLCAnLXRuJywgJzgnLCAnLW1hJywgJzUwMCcsICctaW1hZScsICc8aW5maWxlLm1hZT4nLCAnLW9tYWUnLCAnPG91dGZpbGUubWFlPic=

>  <s_epik_input>  (1) 
W0NIMl0xW0NIMl1bQ0gyXU9bQ0gyXVtDQEhdMVtPSF0=

>  <s_glide_docking_method>  (1) 
confgen

>  <s_i_glide_gridfile>  (1) 
gpcr_drd2_6luq_protein_autoprepared_prepared

>  <s_lp_Force_Field>  (1) 
S-OPLS

>  <s_lp_Variant>  (1) 
Pocket2Mol_13-1

>  <s_m_source_file>  (1) 
generated_generic_title2_ligand_Pocket2Mol_2026-06-23_prepared.sdf

>  <GenAI_Model>  (1) 
Pocket2Mol

>  <Protein>  (1) 
generic_title2

$$$$
Pocket2Mol_34
     RDKit          3D

  0  0  0  0  0  0  0  0  0  0999 V3000
M  V30 BEGIN CTAB
M  V30 COUNTS 16 17 0 0 1
M  V30 BEGIN ATOM
M  V30 1 C 9.990185 7.560904 -7.584379 0
M  V30 2 O 10.577122 8.845021 -7.148062 0
M  V30 3 C 11.111936 8.512299 -5.957773 0
M  V30 4 C 10.971914 7.238054 -5.586222 0
M  V30 5 C 11.499290 6.790470 -4.363756 0
M  V30 6 N 12.175318 7.614169 -3.512886 0
M  V30 7 C 12.299767 8.917172 -3.905109 0
M  V30 8 C 11.782607 9.412166 -5.126221 0
M  V30 9 C 10.246211 6.390227 -6.529832 0
M  V30 10 H 8.919978 7.702123 -7.731543 0
M  V30 11 H 10.406605 7.290634 -8.555155 0
M  V30 12 H 11.388604 5.761873 -4.057235 0
M  V30 13 H 12.828928 9.573273 -3.229245 0
M  V30 14 H 11.903811 10.446900 -5.407065 0
M  V30 15 H 10.872495 5.590360 -6.924671 0
M  V30 16 H 9.325233 5.995937 -6.100118 0
M  V30 END ATOM
M  V30 BEGIN BOND
M  V30 1 1 2 1
M  V30 2 1 3 2
M  V30 3 2 4 3
M  V30 4 1 5 4
M  V30 5 2 6 5
M  V30 6 1 7 6
M  V30 7 1 8 3
M  V30 8 2 8 7
M  V30 9 1 9 1
M  V30 10 1 9 4
M  V30 11 1 10 1
M  V30 12 1 11 1
M  V30 13 1 12 5
M  V30 14 1 13 7
M  V30 15 1 14 8
M  V30 16 1 15 9
M  V30 17 1 16 9
M  V30 END BOND
M  V30 END CTAB
M  END
>  <i_epik_Tot_Q>  (1) 
0

>  <i_epik_Tot_abs_Q>  (1) 
0

>  <i_i_glide_confnum>  (1) 
1

>  <i_i_glide_lignum>  (1) 
39

>  <i_i_glide_posenum>  (1) 
141

>  <i_i_glide_rotatable_bonds>  (1) 
0

>  <i_lp_mmshare_version>  (1) 
72125

>  <i_m_source_file_index>  (1) 
35

>  <i_f3d_flags>  (1) 
0

>  <num_sample>  (1) 
50

>  <b_lp_Chiralities_Consistent>  (1) 
1

>  <r_epik_Charging_Adjusted_Penalty>  (1) 
0.44367302241175416

>  <r_epik_Ionization_Penalty>  (1) 
0.4436730224117541

>  <r_epik_Ionization_Penalty_Charging>  (1) 
0

>  <r_epik_Ionization_Penalty_Neutral>  (1) 
0.4436730224117541

>  <r_epik_State_Penalty>  (1) 
0.44367302241175416

>  <r_glide_ring_energy>  (1) 
0

>  <r_i_docking_score>  (1) 
-5.1506209775468585

>  <r_i_glide_ecoul>  (1) 
-1.5092118625722435

>  <r_i_glide_eff_state_penalty>  (1) 
0.44367302241175416

>  <r_i_glide_einternal>  (1) 
0

>  <r_i_glide_emodel>  (1) 
-27.797880241576934

>  <r_i_glide_emodel_strain>  (1) 
0

>  <r_i_glide_energy>  (1) 
-20.407741240282924

>  <r_i_glide_erotb>  (1) 
0

>  <r_i_glide_esite>  (1) 
0

>  <r_i_glide_evdw>  (1) 
-18.89852937771068

>  <r_i_glide_gscore>  (1) 
-5.5942939999586123

>  <r_i_glide_gscore_strain>  (1) 
0

>  <r_i_glide_hbond>  (1) 
0

>  <r_i_glide_ligand_efficiency>  (1) 
-0.57229121972742869

>  <r_i_glide_ligand_efficiency_ln>  (1) 
-1.6109662780830114

>  <r_i_glide_ligand_efficiency_sa>  (1) 
-1.1904137082296675

>  <r_i_glide_lipo>  (1) 
-1.6722220836543691

>  <r_i_glide_metal>  (1) 
-0

>  <r_i_glide_rewards>  (1) 
-2.7507636680328731

>  <r_lp_Energy>  (1) 
12.810587999999999

>  <s_epik_cmdline>  (1) 
J2VwaWtfcHl0aG9uJywgJy1waHQnLCAnMS4wJywgJy1waCcsICc3LjQnLCAnLXRuJywgJzgnLCAnLW1hJywgJzUwMCcsICctaW1hZScsICc8aW5maWxlLm1hZT4nLCAnLW9tYWUnLCAnPG91dGZpbGUubWFlPic=

>  <s_epik_input>  (1) 
TzFbQ0gyXVtDSDJdYyhjMTIpW2NIXW5bY0hdW2NIXTI=

>  <s_glide_docking_method>  (1) 
confgen

>  <s_i_glide_gridfile>  (1) 
gpcr_drd2_6luq_protein_autoprepared_prepared

>  <s_lp_Force_Field>  (1) 
S-OPLS

>  <s_lp_Variant>  (1) 
Pocket2Mol_34-2

>  <s_m_source_file>  (1) 
generated_generic_title2_ligand_Pocket2Mol_2026-06-23_prepared.sdf

>  <GenAI_Model>  (1) 
Pocket2Mol

>  <Protein>  (1) 
generic_title2

$$$$
Pocket2Mol_23
     RDKit          3D

  0  0  0  0  0  0  0  0  0  0999 V3000
M  V30 BEGIN CTAB
M  V30 COUNTS 15 16 0 0 1
M  V30 BEGIN ATOM
M  V30 1 C 10.976475 7.214535 -5.413625 0
M  V30 2 O 11.120602 8.593028 -5.769586 0
M  V30 3 C 10.973127 8.774637 -7.177852 0 CFG=2
M  V30 4 C 9.697027 8.224759 -7.775374 0 CFG=1
M  V30 5 O 9.375452 8.692315 -9.063183 0
M  V30 6 C 11.192063 6.411423 -6.694719 0
M  V30 7 C 10.963545 7.403710 -7.774545 0 CFG=2
M  V30 8 H 11.663420 6.937526 -4.616117 0
M  V30 9 H 9.965150 7.048561 -5.049303 0
M  V30 10 H 11.532657 9.587132 -7.639275 0
M  V30 11 H 8.849843 7.957736 -7.146015 0
M  V30 12 H 8.474462 8.390207 -9.244960 0
M  V30 13 H 12.206405 6.028964 -6.761055 0
M  V30 14 H 10.488611 5.589540 -6.788288 0
M  V30 15 H 11.467281 7.237836 -8.725305 0
M  V30 END ATOM
M  V30 BEGIN BOND
M  V30 1 1 2 1
M  V30 2 1 3 2
M  V30 3 1 4 3
M  V30 4 1 5 4
M  V30 5 1 6 1
M  V30 6 1 7 3
M  V30 7 1 7 4
M  V30 8 1 7 6
M  V30 9 1 8 1
M  V30 10 1 9 1
M  V30 11 1 3 10 CFG=3
M  V30 12 1 4 11 CFG=1
M  V30 13 1 12 5
M  V30 14 1 13 6
M  V30 15 1 14 6
M  V30 16 1 7 15 CFG=3
M  V30 END BOND
M  V30 END CTAB
M  END
>  <i_epik_Tot_Q>  (1) 
0

>  <i_epik_Tot_abs_Q>  (1) 
0

>  <i_i_glide_confnum>  (1) 
1

>  <i_i_glide_lignum>  (1) 
27

>  <i_i_glide_posenum>  (1) 
303

>  <i_i_glide_rotatable_bonds>  (1) 
1

>  <i_lp_mmshare_version>  (1) 
72125

>  <i_m_source_file_index>  (1) 
24

>  <i_f3d_flags>  (1) 
0

>  <num_sample>  (1) 
50

>  <b_lp_Chiralities_Consistent>  (1) 
1

>  <r_epik_Charging_Adjusted_Penalty>  (1) 
0

>  <r_epik_Ionization_Penalty>  (1) 
4.3639151522347116e-08

>  <r_epik_Ionization_Penalty_Charging>  (1) 
0

>  <r_epik_Ionization_Penalty_Neutral>  (1) 
4.3639151522347116e-08

>  <r_epik_State_Penalty>  (1) 
-0

>  <r_glide_ring_energy>  (1) 
0

>  <r_i_docking_score>  (1) 
-5.1468453199503141

>  <r_i_glide_ecoul>  (1) 
-7.0498761318335355

>  <r_i_glide_eff_state_penalty>  (1) 
-0

>  <r_i_glide_einternal>  (1) 
0.7322155554752936

>  <r_i_glide_emodel>  (1) 
-24.412532398569866

>  <r_i_glide_emodel_strain>  (1) 
0.34422948977395151

>  <r_i_glide_energy>  (1) 
-18.16075484032212

>  <r_i_glide_erotb>  (1) 
0

>  <r_i_glide_esite>  (1) 
0

>  <r_i_glide_evdw>  (1) 
-11.110878708488583

>  <r_i_glide_gscore>  (1) 
-5.1468453199503141

>  <r_i_glide_gscore_strain>  (1) 
0

>  <r_i_glide_hbond>  (1) 
-0.16

>  <r_i_glide_ligand_efficiency>  (1) 
-0.73526361713575916

>  <r_i_glide_ligand_efficiency_ln>  (1) 
-1.7471155125355031

>  <r_i_glide_ligand_efficiency_sa>  (1) 
-1.406508700777013

>  <r_i_glide_lipo>  (1) 
-0.83165324001870011

>  <r_i_glide_metal>  (1) 
-0

>  <r_i_glide_rewards>  (1) 
-2.5421667247321547

>  <r_lp_Energy>  (1) 
3.2309049999999999

>  <r_lp_tautomer_probability>  (1) 
1

>  <s_epik_cmdline>  (1) 
J2VwaWtfcHl0aG9uJywgJy1waHQnLCAnMS4wJywgJy1waCcsICc3LjQnLCAnLXRuJywgJzgnLCAnLW1hJywgJzUwMCcsICctaW1hZScsICc8aW5maWxlLm1hZT4nLCAnLW9tYWUnLCAnPG91dGZpbGUubWFlPic=

>  <s_epik_input>  (1) 
TzFbQ0gyXVtDSDJdW0NIXShbQ0BIXTEyKVtDQEBIXTJbT0hd

>  <s_glide_docking_method>  (1) 
confgen

>  <s_i_glide_gridfile>  (1) 
gpcr_drd2_6luq_protein_autoprepared_prepared

>  <s_lp_Force_Field>  (1) 
S-OPLS

>  <s_lp_Variant>  (1) 
Pocket2Mol_23-1

>  <s_m_source_file>  (1) 
generated_generic_title2_ligand_Pocket2Mol_2026-06-23_prepared.sdf

>  <GenAI_Model>  (1) 
Pocket2Mol

>  <Protein>  (1) 
generic_title2

$$$$
Pocket2Mol_34
     RDKit          3D

  0  0  0  0  0  0  0  0  0  0999 V3000
M  V30 BEGIN CTAB
M  V30 COUNTS 16 17 0 0 1
M  V30 BEGIN ATOM
M  V30 1 C 12.021993 7.244537 -2.551310 0
M  V30 2 O 11.437836 6.390216 -3.611236 0
M  V30 3 C 11.375409 7.251643 -4.646599 0
M  V30 4 C 11.775410 8.505684 -4.396744 0
M  V30 5 C 11.756762 9.471226 -5.415269 0
M  V30 6 N 11.345151 9.190215 -6.679119 0
M  V30 7 C 10.930492 7.911316 -6.914619 0
M  V30 8 C 10.931523 6.903732 -5.923829 0
M  V30 9 C 12.225189 8.762271 -3.025865 0
M  V30 10 H 11.376124 7.209114 -1.673613 0
M  V30 11 H 12.975395 6.811521 -2.251600 0
M  V30 12 H 12.079782 10.482590 -5.223910 0
M  V30 13 H 10.595950 7.691860 -7.917748 0
M  V30 14 H 10.601365 5.901949 -6.147050 0
M  V30 15 H 13.262935 9.094122 -2.983562 0
M  V30 16 H 11.570101 9.464837 -2.509647 0
M  V30 END ATOM
M  V30 BEGIN BOND
M  V30 1 1 2 1
M  V30 2 1 3 2
M  V30 3 2 4 3
M  V30 4 1 5 4
M  V30 5 2 6 5
M  V30 6 1 7 6
M  V30 7 1 8 3
M  V30 8 2 8 7
M  V30 9 1 9 1
M  V30 10 1 9 4
M  V30 11 1 10 1
M  V30 12 1 11 1
M  V30 13 1 12 5
M  V30 14 1 13 7
M  V30 15 1 14 8
M  V30 16 1 15 9
M  V30 17 1 16 9
M  V30 END BOND
M  V30 END CTAB
M  END
>  <i_epik_Tot_Q>  (1) 
0

>  <i_epik_Tot_abs_Q>  (1) 
0

>  <i_i_glide_confnum>  (1) 
1

>  <i_i_glide_lignum>  (1) 
39

>  <i_i_glide_posenum>  (1) 
6

>  <i_i_glide_rotatable_bonds>  (1) 
0

>  <i_lp_mmshare_version>  (1) 
72125

>  <i_m_source_file_index>  (1) 
35

>  <i_f3d_flags>  (1) 
0

>  <num_sample>  (1) 
50

>  <b_lp_Chiralities_Consistent>  (1) 
1

>  <r_epik_Charging_Adjusted_Penalty>  (1) 
0.44367302241175416

>  <r_epik_Ionization_Penalty>  (1) 
0.4436730224117541

>  <r_epik_Ionization_Penalty_Charging>  (1) 
0

>  <r_epik_Ionization_Penalty_Neutral>  (1) 
0.4436730224117541

>  <r_epik_State_Penalty>  (1) 
0.44367302241175416

>  <r_glide_ring_energy>  (1) 
0

>  <r_i_docking_score>  (1) 
-5.1356891184722793

>  <r_i_glide_ecoul>  (1) 
-0.13647326732117032

>  <r_i_glide_eff_state_penalty>  (1) 
0.44367302241175416

>  <r_i_glide_einternal>  (1) 
0

>  <r_i_glide_emodel>  (1) 
-27.526000325737478

>  <r_i_glide_emodel_strain>  (1) 
0

>  <r_i_glide_energy>  (1) 
-20.155586514808807

>  <r_i_glide_erotb>  (1) 
0

>  <r_i_glide_esite>  (1) 
0

>  <r_i_glide_evdw>  (1) 
-20.019113247487635

>  <r_i_glide_gscore>  (1) 
-5.579362140884033

>  <r_i_glide_gscore_strain>  (1) 
0

>  <r_i_glide_hbond>  (1) 
0

>  <r_i_glide_ligand_efficiency>  (1) 
-0.57063212427469767

>  <r_i_glide_ligand_efficiency_ln>  (1) 
-1.6062960215172308

>  <r_i_glide_ligand_efficiency_sa>  (1) 
-1.1869626506175426

>  <r_i_glide_lipo>  (1) 
-1.844378965789147

>  <r_i_glide_metal>  (1) 
-0

>  <r_i_glide_rewards>  (1) 
-2.7135565226223282

>  <r_lp_Energy>  (1) 
12.810587999999999

>  <s_epik_cmdline>  (1) 
J2VwaWtfcHl0aG9uJywgJy1waHQnLCAnMS4wJywgJy1waCcsICc3LjQnLCAnLXRuJywgJzgnLCAnLW1hJywgJzUwMCcsICctaW1hZScsICc8aW5maWxlLm1hZT4nLCAnLW9tYWUnLCAnPG91dGZpbGUubWFlPic=

>  <s_epik_input>  (1) 
TzFbQ0gyXVtDSDJdYyhjMTIpW2NIXW5bY0hdW2NIXTI=

>  <s_glide_docking_method>  (1) 
confgen

>  <s_i_glide_gridfile>  (1) 
gpcr_drd2_6luq_protein_autoprepared_prepared

>  <s_lp_Force_Field>  (1) 
S-OPLS

>  <s_lp_Variant>  (1) 
Pocket2Mol_34-2

>  <s_m_source_file>  (1) 
generated_generic_title2_ligand_Pocket2Mol_2026-06-23_prepared.sdf

>  <GenAI_Model>  (1) 
Pocket2Mol

>  <Protein>  (1) 
generic_title2

$$$$
Pocket2Mol_22
     RDKit          3D

  0  0  0  0  0  0  0  0  0  0999 V3000
M  V30 BEGIN CTAB
M  V30 COUNTS 11 11 0 0 1
M  V30 BEGIN ATOM
M  V30 1 N 12.177746 9.190236 -3.216074 0
M  V30 2 C 11.781318 9.177281 -4.511610 0
M  V30 3 C 11.375388 8.008992 -5.185024 0
M  V30 4 C 12.175420 8.008735 -2.554554 0
M  V30 5 C 11.783467 6.790223 -3.143228 0
M  V30 6 F 10.990634 8.060486 -6.481734 0
M  V30 7 C 11.375407 6.790309 -4.487340 0
M  V30 8 H 11.789194 10.127744 -5.024332 0
M  V30 9 H 12.494771 8.037966 -1.523617 0
M  V30 10 H 11.796338 5.873262 -2.571833 0
M  V30 11 H 11.067965 5.876361 -4.972090 0
M  V30 END ATOM
M  V30 BEGIN BOND
M  V30 1 2 2 1
M  V30 2 1 3 2
M  V30 3 1 4 1
M  V30 4 2 5 4
M  V30 5 1 6 3
M  V30 6 2 7 3
M  V30 7 1 7 5
M  V30 8 1 8 2
M  V30 9 1 9 4
M  V30 10 1 10 5
M  V30 11 1 11 7
M  V30 END BOND
M  V30 END CTAB
M  END
>  <i_epik_Tot_Q>  (1) 
0

>  <i_epik_Tot_abs_Q>  (1) 
0

>  <i_i_glide_confnum>  (1) 
1

>  <i_i_glide_lignum>  (1) 
26

>  <i_i_glide_posenum>  (1) 
71

>  <i_i_glide_rotatable_bonds>  (1) 
0

>  <i_lp_mmshare_version>  (1) 
72125

>  <i_m_source_file_index>  (1) 
23

>  <i_f3d_flags>  (1) 
0

>  <num_sample>  (1) 
50

>  <b_lp_Chiralities_Consistent>  (1) 
1

>  <r_epik_Charging_Adjusted_Penalty>  (1) 
0

>  <r_epik_Ionization_Penalty>  (1) 
7.3223601380878174e-05

>  <r_epik_Ionization_Penalty_Charging>  (1) 
0

>  <r_epik_Ionization_Penalty_Neutral>  (1) 
7.3223601380878174e-05

>  <r_epik_State_Penalty>  (1) 
-0

>  <r_glide_ring_energy>  (1) 
0

>  <r_i_docking_score>  (1) 
-5.1303805736070931

>  <r_i_glide_ecoul>  (1) 
-0.15616399415308885

>  <r_i_glide_eff_state_penalty>  (1) 
-0

>  <r_i_glide_einternal>  (1) 
0

>  <r_i_glide_emodel>  (1) 
-20.690052626907455

>  <r_i_glide_emodel_strain>  (1) 
0

>  <r_i_glide_energy>  (1) 
-15.44921620488809

>  <r_i_glide_erotb>  (1) 
0

>  <r_i_glide_esite>  (1) 
0

>  <r_i_glide_evdw>  (1) 
-15.293052210735002

>  <r_i_glide_gscore>  (1) 
-5.1303805736070931

>  <r_i_glide_gscore_strain>  (1) 
0

>  <r_i_glide_hbond>  (1) 
0

>  <r_i_glide_ligand_efficiency>  (1) 
-0.73291151051529901

>  <r_i_glide_ligand_efficiency_ln>  (1) 
-1.7415264940284378

>  <r_i_glide_ligand_efficiency_sa>  (1) 
-1.4020092826775292

>  <r_i_glide_lipo>  (1) 
-1.4679527585032204

>  <r_i_glide_metal>  (1) 
-0

>  <r_i_glide_rewards>  (1) 
-2.8743506054441594

>  <r_lp_Energy>  (1) 
10.789624

>  <r_lp_tautomer_probability>  (1) 
1

>  <s_epik_cmdline>  (1) 
J2VwaWtfcHl0aG9uJywgJy1waHQnLCAnMS4wJywgJy1waCcsICc3LjQnLCAnLXRuJywgJzgnLCAnLW1hJywgJzUwMCcsICctaW1hZScsICc8aW5maWxlLm1hZT4nLCAnLW9tYWUnLCAnPG91dGZpbGUubWFlPic=

>  <s_epik_input>  (1) 
W2NIXTFbY0hdW2NIXW5bY0hdYzFG

>  <s_glide_docking_method>  (1) 
confgen

>  <s_i_glide_gridfile>  (1) 
gpcr_drd2_6luq_protein_autoprepared_prepared

>  <s_lp_Force_Field>  (1) 
S-OPLS

>  <s_lp_Variant>  (1) 
Pocket2Mol_22-1

>  <s_m_source_file>  (1) 
generated_generic_title2_ligand_Pocket2Mol_2026-06-23_prepared.sdf

>  <GenAI_Model>  (1) 
Pocket2Mol

>  <Protein>  (1) 
generic_title2

$$$$
Pocket2Mol_34
     RDKit          3D

  0  0  0  0  0  0  0  0  0  0999 V3000
M  V30 BEGIN CTAB
M  V30 COUNTS 17 18 0 0 1
M  V30 BEGIN ATOM
M  V30 1 C 10.036984 7.543767 -7.744112 0
M  V30 2 O 10.668260 8.810486 -7.323394 0
M  V30 3 C 11.126450 8.504450 -6.094716 0
M  V30 4 C 10.928829 7.236359 -5.696899 0
M  V30 5 C 11.375397 6.798371 -4.437580 0
M  V30 6 N 12.009514 7.681045 -3.626515 0 CHG=1
M  V30 7 C 12.221842 8.973794 -3.985025 0
M  V30 8 C 11.777715 9.426944 -5.253679 0
M  V30 9 C 10.233176 6.389270 -6.661821 0
M  V30 10 H 10.437895 7.233323 -8.710005 0
M  V30 11 H 8.975313 7.734139 -7.897261 0
M  V30 12 H 11.250650 5.799691 -4.056907 0
M  V30 13 H 12.734228 9.590666 -3.260672 0
M  V30 14 H 11.936217 10.446015 -5.570429 0
M  V30 15 H 10.879170 5.590311 -7.021303 0
M  V30 16 H 9.293167 5.992537 -6.276459 0
M  V30 17 H 12.333937 7.364395 -2.711552 0
M  V30 END ATOM
M  V30 BEGIN BOND
M  V30 1 1 2 1
M  V30 2 1 3 2
M  V30 3 2 4 3
M  V30 4 1 5 4
M  V30 5 2 6 5
M  V30 6 1 7 6
M  V30 7 1 8 3
M  V30 8 2 8 7
M  V30 9 1 9 1
M  V30 10 1 9 4
M  V30 11 1 10 1
M  V30 12 1 11 1
M  V30 13 1 12 5
M  V30 14 1 13 7
M  V30 15 1 14 8
M  V30 16 1 15 9
M  V30 17 1 16 9
M  V30 18 1 17 6
M  V30 END BOND
M  V30 END CTAB
M  END
>  <i_epik_Tot_Q>  (1) 
1

>  <i_epik_Tot_abs_Q>  (1) 
1

>  <i_i_glide_confnum>  (1) 
1

>  <i_i_glide_lignum>  (1) 
38

>  <i_i_glide_posenum>  (1) 
136

>  <i_i_glide_rotatable_bonds>  (1) 
0

>  <i_lp_mmshare_version>  (1) 
72125

>  <i_m_source_file_index>  (1) 
35

>  <i_f3d_flags>  (1) 
0

>  <num_sample>  (1) 
50

>  <b_lp_Chiralities_Consistent>  (1) 
1

>  <r_epik_Charging_Adjusted_Penalty>  (1) 
0.75885481127580179

>  <r_epik_Ionization_Penalty>  (1) 
0.37942740563790117

>  <r_epik_Ionization_Penalty_Charging>  (1) 
0.37942740563790117

>  <r_epik_Ionization_Penalty_Neutral>  (1) 
0

>  <r_epik_State_Penalty>  (1) 
0.37942740563790056

>  <r_glide_ring_energy>  (1) 
0

>  <r_i_docking_score>  (1) 
-5.1282316690390362

>  <r_i_glide_ecoul>  (1) 
-1.892554031019086

>  <r_i_glide_eff_state_penalty>  (1) 
0.37942740563790056

>  <r_i_glide_einternal>  (1) 
0

>  <r_i_glide_emodel>  (1) 
-29.574092776938794

>  <r_i_glide_emodel_strain>  (1) 
0

>  <r_i_glide_energy>  (1) 
-19.096824814771704

>  <r_i_glide_erotb>  (1) 
0

>  <r_i_glide_esite>  (1) 
0

>  <r_i_glide_evdw>  (1) 
-17.204270783752619

>  <r_i_glide_gscore>  (1) 
-5.5076590746769369

>  <r_i_glide_gscore_strain>  (1) 
0

>  <r_i_glide_hbond>  (1) 
0

>  <r_i_glide_ligand_efficiency>  (1) 
-0.5698035187821151

>  <r_i_glide_ligand_efficiency_ln>  (1) 
-1.6039635455672754

>  <r_i_glide_ligand_efficiency_sa>  (1) 
-1.1852390817367298

>  <r_i_glide_lipo>  (1) 
-1.687637963859963

>  <r_i_glide_metal>  (1) 
-0

>  <r_i_glide_rewards>  (1) 
-2.6759244669764803

>  <r_lp_Energy>  (1) 
18.327531999999998

>  <s_epik_cmdline>  (1) 
J2VwaWtfcHl0aG9uJywgJy1waHQnLCAnMS4wJywgJy1waCcsICc3LjQnLCAnLXRuJywgJzgnLCAnLW1hJywgJzUwMCcsICctaW1hZScsICc8aW5maWxlLm1hZT4nLCAnLW9tYWUnLCAnPG91dGZpbGUubWFlPic=

>  <s_epik_input>  (1) 
TzFbQ0gyXVtDSDJdYyhjMTIpW2NIXW5bY0hdW2NIXTI=

>  <s_glide_docking_method>  (1) 
confgen

>  <s_i_glide_gridfile>  (1) 
gpcr_drd2_6luq_protein_autoprepared_prepared

>  <s_lp_Force_Field>  (1) 
S-OPLS

>  <s_lp_Variant>  (1) 
Pocket2Mol_34-1

>  <s_m_source_file>  (1) 
generated_generic_title2_ligand_Pocket2Mol_2026-06-23_prepared.sdf

>  <GenAI_Model>  (1) 
Pocket2Mol

>  <Protein>  (1) 
generic_title2

$$$$
Pocket2Mol_35
     RDKit          3D

  0  0  0  0  0  0  0  0  0  0999 V3000
M  V30 BEGIN CTAB
M  V30 COUNTS 15 16 0 0 1
M  V30 BEGIN ATOM
M  V30 1 C 9.941942 7.439012 -7.182549 0
M  V30 2 O 10.372669 6.441187 -6.206855 0
M  V30 3 C 10.975544 7.240770 -5.321126 0
M  V30 4 C 10.974558 8.530590 -5.659459 0
M  V30 5 C 11.566345 9.511198 -4.843714 0
M  V30 6 C 12.174907 9.109840 -3.629131 0
M  V30 7 C 12.175604 7.736185 -3.268632 0
M  V30 8 C 11.568338 6.790227 -4.128987 0
M  V30 9 O 10.364787 8.790215 -6.819353 0
M  V30 10 H 8.852958 7.415158 -7.250020 0
M  V30 11 H 10.349968 7.191657 -8.164263 0
M  V30 12 H 11.554117 10.551659 -5.136586 0
M  V30 13 H 12.631394 9.843650 -2.980060 0
M  V30 14 H 12.633378 7.415195 -2.343840 0
M  V30 15 H 11.557807 5.741858 -3.873155 0
M  V30 END ATOM
M  V30 BEGIN BOND
M  V30 1 1 2 1
M  V30 2 1 3 2
M  V30 3 1 4 3
M  V30 4 2 5 4
M  V30 5 1 6 5
M  V30 6 2 7 6
M  V30 7 2 8 3
M  V30 8 1 8 7
M  V30 9 1 9 1
M  V30 10 1 9 4
M  V30 11 1 10 1
M  V30 12 1 11 1
M  V30 13 1 12 5
M  V30 14 1 13 6
M  V30 15 1 14 7
M  V30 16 1 15 8
M  V30 END BOND
M  V30 END CTAB
M  END
>  <i_epik_Tot_Q>  (1) 
0

>  <i_epik_Tot_abs_Q>  (1) 
0

>  <i_i_glide_confnum>  (1) 
1

>  <i_i_glide_lignum>  (1) 
40

>  <i_i_glide_posenum>  (1) 
52

>  <i_i_glide_rotatable_bonds>  (1) 
0

>  <i_lp_mmshare_version>  (1) 
72125

>  <i_m_source_file_index>  (1) 
36

>  <i_f3d_flags>  (1) 
0

>  <num_sample>  (1) 
50

>  <b_lp_Chiralities_Consistent>  (1) 
1

>  <r_epik_Charging_Adjusted_Penalty>  (1) 
0

>  <r_epik_Ionization_Penalty>  (1) 
0

>  <r_epik_Ionization_Penalty_Charging>  (1) 
0

>  <r_epik_Ionization_Penalty_Neutral>  (1) 
0

>  <r_epik_State_Penalty>  (1) 
-0

>  <r_glide_ring_energy>  (1) 
0

>  <r_i_docking_score>  (1) 
-5.1253067864735673

>  <r_i_glide_ecoul>  (1) 
-1.0466097407821198

>  <r_i_glide_eff_state_penalty>  (1) 
-0

>  <r_i_glide_einternal>  (1) 
0

>  <r_i_glide_emodel>  (1) 
-26.698149706333957

>  <r_i_glide_emodel_strain>  (1) 
0

>  <r_i_glide_energy>  (1) 
-20.089135004612046

>  <r_i_glide_erotb>  (1) 
0

>  <r_i_glide_esite>  (1) 
-0.029581924224471881

>  <r_i_glide_evdw>  (1) 
-19.042525263829926

>  <r_i_glide_gscore>  (1) 
-5.1253067864735673

>  <r_i_glide_gscore_strain>  (1) 
0

>  <r_i_glide_hbond>  (1) 
0

>  <r_i_glide_ligand_efficiency>  (1) 
-0.56947853183039632

>  <r_i_glide_ligand_efficiency_ln>  (1) 
-1.6030487263249231

>  <r_i_glide_ligand_efficiency_sa>  (1) 
-1.1845630816357566

>  <r_i_glide_lipo>  (1) 
-1.7366071379402814

>  <r_i_glide_metal>  (1) 
-0

>  <r_i_glide_rewards>  (1) 
-2.25

>  <r_lp_Energy>  (1) 
19.342482

>  <r_lp_tautomer_probability>  (1) 
1

>  <s_epik_Chemistry_Notes>  (1) 
This compound contains an acetal/aminal-like group ( X-CH(R)-Y where X, Y are N, S, or O) that may be acid/base labile, releasing an aldehyde.

>  <s_epik_cmdline>  (1) 
J2VwaWtfcHl0aG9uJywgJy1waHQnLCAnMS4wJywgJy1waCcsICc3LjQnLCAnLXRuJywgJzgnLCAnLW1hJywgJzUwMCcsICctaW1hZScsICc8aW5maWxlLm1hZT4nLCAnLW9tYWUnLCAnPG91dGZpbGUubWFlPic=

>  <s_epik_input>  (1) 
TzFbQ0gyXU9jKGMxMilbY0hdW2NIXVtjSF1bY0hdMg==

>  <s_glide_docking_method>  (1) 
confgen

>  <s_i_glide_gridfile>  (1) 
gpcr_drd2_6luq_protein_autoprepared_prepared

>  <s_lp_Force_Field>  (1) 
S-OPLS

>  <s_lp_Variant>  (1) 
Pocket2Mol_35-1

>  <s_m_source_file>  (1) 
generated_generic_title2_ligand_Pocket2Mol_2026-06-23_prepared.sdf

>  <GenAI_Model>  (1) 
Pocket2Mol

>  <Protein>  (1) 
generic_title2

$$$$
Pocket2Mol_34
     RDKit          3D

  0  0  0  0  0  0  0  0  0  0999 V3000
M  V30 BEGIN CTAB
M  V30 COUNTS 17 18 0 0 1
M  V30 BEGIN ATOM
M  V30 1 C 12.494833 8.548980 -2.121085 0
M  V30 2 O 12.216049 9.590226 -3.135342 0
M  V30 3 C 11.792210 8.853485 -4.177764 0
M  V30 4 C 11.775410 7.519309 -3.985028 0
M  V30 5 C 11.340858 6.656619 -5.000833 0
M  V30 6 N 10.937629 7.181860 -6.181006 0 CHG=1
M  V30 7 C 10.939335 8.517027 -6.420643 0
M  V30 8 C 11.375410 9.406045 -5.406797 0
M  V30 9 C 12.219629 7.070019 -2.664181 0
M  V30 10 H 11.875403 8.746911 -1.245202 0
M  V30 11 H 13.530123 8.649453 -1.795673 0
M  V30 12 H 11.298440 5.590227 -4.912452 0
M  V30 13 H 10.595343 8.824913 -7.397587 0
M  V30 14 H 11.383861 10.473933 -5.568011 0
M  V30 15 H 11.428491 6.552073 -2.120250 0
M  V30 16 H 13.118823 6.457866 -2.719875 0
M  V30 17 H 10.617197 6.549824 -6.917838 0
M  V30 END ATOM
M  V30 BEGIN BOND
M  V30 1 1 2 1
M  V30 2 1 3 2
M  V30 3 2 4 3
M  V30 4 1 5 4
M  V30 5 2 6 5
M  V30 6 1 7 6
M  V30 7 1 8 3
M  V30 8 2 8 7
M  V30 9 1 9 1
M  V30 10 1 9 4
M  V30 11 1 10 1
M  V30 12 1 11 1
M  V30 13 1 12 5
M  V30 14 1 13 7
M  V30 15 1 14 8
M  V30 16 1 15 9
M  V30 17 1 16 9
M  V30 18 1 17 6
M  V30 END BOND
M  V30 END CTAB
M  END
>  <i_epik_Tot_Q>  (1) 
1

>  <i_epik_Tot_abs_Q>  (1) 
1

>  <i_i_glide_confnum>  (1) 
1

>  <i_i_glide_lignum>  (1) 
38

>  <i_i_glide_posenum>  (1) 
138

>  <i_i_glide_rotatable_bonds>  (1) 
0

>  <i_lp_mmshare_version>  (1) 
72125

>  <i_m_source_file_index>  (1) 
35

>  <i_f3d_flags>  (1) 
0

>  <num_sample>  (1) 
50

>  <b_lp_Chiralities_Consistent>  (1) 
1

>  <r_epik_Charging_Adjusted_Penalty>  (1) 
0.75885481127580179

>  <r_epik_Ionization_Penalty>  (1) 
0.37942740563790117

>  <r_epik_Ionization_Penalty_Charging>  (1) 
0.37942740563790117

>  <r_epik_Ionization_Penalty_Neutral>  (1) 
0

>  <r_epik_State_Penalty>  (1) 
0.37942740563790056

>  <r_glide_ring_energy>  (1) 
0

>  <r_i_docking_score>  (1) 
-5.1231330362413763

>  <r_i_glide_ecoul>  (1) 
-0.8011470168002246

>  <r_i_glide_eff_state_penalty>  (1) 
0.37942740563790056

>  <r_i_glide_einternal>  (1) 
0

>  <r_i_glide_emodel>  (1) 
-28.756570032269742

>  <r_i_glide_emodel_strain>  (1) 
0

>  <r_i_glide_energy>  (1) 
-18.289001243805579

>  <r_i_glide_erotb>  (1) 
0

>  <r_i_glide_esite>  (1) 
0

>  <r_i_glide_evdw>  (1) 
-17.487854227005354

>  <r_i_glide_gscore>  (1) 
-5.5025604418792771

>  <r_i_glide_gscore_strain>  (1) 
0

>  <r_i_glide_hbond>  (1) 
0

>  <r_i_glide_ligand_efficiency>  (1) 
-0.56923700402681954

>  <r_i_glide_ligand_efficiency_ln>  (1) 
-1.6023688396983784

>  <r_i_glide_ligand_efficiency_sa>  (1) 
-1.1840606835587193

>  <r_i_glide_lipo>  (1) 
-2.0223787753870743

>  <r_i_glide_metal>  (1) 
-0

>  <r_i_glide_rewards>  (1) 
-2.485616902621901

>  <r_lp_Energy>  (1) 
18.327531999999998

>  <s_epik_cmdline>  (1) 
J2VwaWtfcHl0aG9uJywgJy1waHQnLCAnMS4wJywgJy1waCcsICc3LjQnLCAnLXRuJywgJzgnLCAnLW1hJywgJzUwMCcsICctaW1hZScsICc8aW5maWxlLm1hZT4nLCAnLW9tYWUnLCAnPG91dGZpbGUubWFlPic=

>  <s_epik_input>  (1) 
TzFbQ0gyXVtDSDJdYyhjMTIpW2NIXW5bY0hdW2NIXTI=

>  <s_glide_docking_method>  (1) 
confgen

>  <s_i_glide_gridfile>  (1) 
gpcr_drd2_6luq_protein_autoprepared_prepared

>  <s_lp_Force_Field>  (1) 
S-OPLS

>  <s_lp_Variant>  (1) 
Pocket2Mol_34-1

>  <s_m_source_file>  (1) 
generated_generic_title2_ligand_Pocket2Mol_2026-06-23_prepared.sdf

>  <GenAI_Model>  (1) 
Pocket2Mol

>  <Protein>  (1) 
generic_title2

$$$$
Pocket2Mol_25
     RDKit          3D

  0  0  0  0  0  0  0  0  0  0999 V3000
M  V30 BEGIN CTAB
M  V30 COUNTS 15 15 0 0 1
M  V30 BEGIN ATOM
M  V30 1 C 11.440049 9.107111 -5.326218 0
M  V30 2 O 12.504701 9.320009 -4.391754 0
M  V30 3 C 12.279941 8.763276 -3.092927 0
M  V30 4 C 12.172917 7.216377 -3.151360 0 CFG=1
M  V30 5 O 11.540277 6.739673 -1.985026 0
M  V30 6 C 11.043612 7.646696 -5.349422 0
M  V30 7 C 11.375406 6.794193 -4.373851 0
M  V30 8 H 11.776984 9.410455 -6.317494 0
M  V30 9 H 10.575416 9.720320 -5.069424 0
M  V30 10 H 11.375413 9.207553 -2.678054 0
M  V30 11 H 13.094560 9.056444 -2.430189 0
M  V30 12 H 13.172472 6.790239 -3.185052 0
M  V30 13 H 11.455880 5.797694 -2.043159 0
M  V30 14 H 10.468194 7.304627 -6.197798 0
M  V30 15 H 11.071595 5.759196 -4.432827 0
M  V30 END ATOM
M  V30 BEGIN BOND
M  V30 1 1 2 1
M  V30 2 1 3 2
M  V30 3 1 4 3
M  V30 4 1 5 4
M  V30 5 1 6 1
M  V30 6 1 7 4
M  V30 7 2 7 6
M  V30 8 1 8 1
M  V30 9 1 9 1
M  V30 10 1 10 3
M  V30 11 1 11 3
M  V30 12 1 4 12 CFG=3
M  V30 13 1 13 5
M  V30 14 1 14 6
M  V30 15 1 15 7
M  V30 END BOND
M  V30 END CTAB
M  END
>  <i_epik_Tot_Q>  (1) 
0

>  <i_epik_Tot_abs_Q>  (1) 
0

>  <i_i_glide_confnum>  (1) 
1

>  <i_i_glide_lignum>  (1) 
29

>  <i_i_glide_posenum>  (1) 
67

>  <i_i_glide_rotatable_bonds>  (1) 
1

>  <i_lp_mmshare_version>  (1) 
72125

>  <i_m_source_file_index>  (1) 
26

>  <i_f3d_flags>  (1) 
0

>  <num_sample>  (1) 
50

>  <b_lp_Chiralities_Consistent>  (1) 
1

>  <r_epik_Charging_Adjusted_Penalty>  (1) 
0

>  <r_epik_Ionization_Penalty>  (1) 
7.567869706951744e-07

>  <r_epik_Ionization_Penalty_Charging>  (1) 
0

>  <r_epik_Ionization_Penalty_Neutral>  (1) 
7.567869706951744e-07

>  <r_epik_State_Penalty>  (1) 
-0

>  <r_glide_ring_energy>  (1) 
0

>  <r_i_docking_score>  (1) 
-5.1176359829202047

>  <r_i_glide_ecoul>  (1) 
-2.4367590617288837

>  <r_i_glide_eff_state_penalty>  (1) 
-0

>  <r_i_glide_einternal>  (1) 
0.38460419168309479

>  <r_i_glide_emodel>  (1) 
-25.237972052358039

>  <r_i_glide_emodel_strain>  (1) 
0

>  <r_i_glide_energy>  (1) 
-18.967879603164555

>  <r_i_glide_erotb>  (1) 
0

>  <r_i_glide_esite>  (1) 
0

>  <r_i_glide_evdw>  (1) 
-16.531120541435673

>  <r_i_glide_gscore>  (1) 
-5.1176359829202047

>  <r_i_glide_gscore_strain>  (1) 
0

>  <r_i_glide_hbond>  (1) 
0

>  <r_i_glide_ligand_efficiency>  (1) 
-0.73109085470288637

>  <r_i_glide_ligand_efficiency_ln>  (1) 
-1.7372002959972539

>  <r_i_glide_ligand_efficiency_sa>  (1) 
-1.3985264934008694

>  <r_i_glide_lipo>  (1) 
-1.4973394968302025

>  <r_i_glide_metal>  (1) 
-0

>  <r_i_glide_rewards>  (1) 
-2.4282265997588857

>  <r_lp_Energy>  (1) 
2.4739009999999997

>  <r_lp_tautomer_probability>  (1) 
1

>  <s_epik_cmdline>  (1) 
J2VwaWtfcHl0aG9uJywgJy1waHQnLCAnMS4wJywgJy1waCcsICc3LjQnLCAnLXRuJywgJzgnLCAnLW1hJywgJzUwMCcsICctaW1hZScsICc8aW5maWxlLm1hZT4nLCAnLW9tYWUnLCAnPG91dGZpbGUubWFlPic=

>  <s_epik_input>  (1) 
W0NIXTE9W0NIXVtDSDJdT1tDSDJdW0NASF0xW09IXQ==

>  <s_glide_docking_method>  (1) 
confgen

>  <s_i_glide_gridfile>  (1) 
gpcr_drd2_6luq_protein_autoprepared_prepared

>  <s_lp_Force_Field>  (1) 
S-OPLS

>  <s_lp_Variant>  (1) 
Pocket2Mol_25-1

>  <s_m_source_file>  (1) 
generated_generic_title2_ligand_Pocket2Mol_2026-06-23_prepared.sdf

>  <GenAI_Model>  (1) 
Pocket2Mol

>  <Protein>  (1) 
generic_title2

$$$$
Pocket2Mol_34
     RDKit          3D

  0  0  0  0  0  0  0  0  0  0999 V3000
M  V30 BEGIN CTAB
M  V30 COUNTS 16 17 0 0 1
M  V30 BEGIN ATOM
M  V30 1 C 10.948952 8.830604 -6.584907 0
M  V30 2 O 10.818873 7.453620 -6.066798 0
M  V30 3 C 11.375535 7.577038 -4.845561 0
M  V30 4 C 11.823541 8.792902 -4.516609 0
M  V30 5 C 12.421064 9.012765 -3.263777 0
M  V30 6 N 12.575409 8.022640 -2.342077 0
M  V30 7 C 12.105434 6.790389 -2.696026 0
M  V30 8 C 11.495008 6.525593 -3.942804 0
M  V30 9 C 11.643236 9.825511 -5.538068 0
M  V30 10 H 11.521003 8.804748 -7.513210 0
M  V30 11 H 9.952527 9.190023 -6.841614 0
M  V30 12 H 12.783869 9.990318 -2.990438 0
M  V30 13 H 12.218902 6.003911 -1.964286 0
M  V30 14 H 11.131532 5.549118 -4.188624 0
M  V30 15 H 10.979401 10.623492 -5.202318 0
M  V30 16 H 12.595748 10.220521 -5.893134 0
M  V30 END ATOM
M  V30 BEGIN BOND
M  V30 1 1 2 1
M  V30 2 1 3 2
M  V30 3 2 4 3
M  V30 4 1 5 4
M  V30 5 2 6 5
M  V30 6 1 7 6
M  V30 7 1 8 3
M  V30 8 2 8 7
M  V30 9 1 9 1
M  V30 10 1 9 4
M  V30 11 1 10 1
M  V30 12 1 11 1
M  V30 13 1 12 5
M  V30 14 1 13 7
M  V30 15 1 14 8
M  V30 16 1 15 9
M  V30 17 1 16 9
M  V30 END BOND
M  V30 END CTAB
M  END
>  <i_epik_Tot_Q>  (1) 
0

>  <i_epik_Tot_abs_Q>  (1) 
0

>  <i_i_glide_confnum>  (1) 
1

>  <i_i_glide_lignum>  (1) 
39

>  <i_i_glide_posenum>  (1) 
67

>  <i_i_glide_rotatable_bonds>  (1) 
0

>  <i_lp_mmshare_version>  (1) 
72125

>  <i_m_source_file_index>  (1) 
35

>  <i_f3d_flags>  (1) 
0

>  <num_sample>  (1) 
50

>  <b_lp_Chiralities_Consistent>  (1) 
1

>  <r_epik_Charging_Adjusted_Penalty>  (1) 
0.44367302241175416

>  <r_epik_Ionization_Penalty>  (1) 
0.4436730224117541

>  <r_epik_Ionization_Penalty_Charging>  (1) 
0

>  <r_epik_Ionization_Penalty_Neutral>  (1) 
0.4436730224117541

>  <r_epik_State_Penalty>  (1) 
0.44367302241175416

>  <r_glide_ring_energy>  (1) 
0

>  <r_i_docking_score>  (1) 
-5.1152057969055518

>  <r_i_glide_ecoul>  (1) 
-0.17380703359714966

>  <r_i_glide_eff_state_penalty>  (1) 
0.44367302241175416

>  <r_i_glide_einternal>  (1) 
0

>  <r_i_glide_emodel>  (1) 
-27.369662220239658

>  <r_i_glide_emodel_strain>  (1) 
1.2002914218101068e-09

>  <r_i_glide_energy>  (1) 
-20.026307158869418

>  <r_i_glide_erotb>  (1) 
0

>  <r_i_glide_esite>  (1) 
0

>  <r_i_glide_evdw>  (1) 
-19.852500125272268

>  <r_i_glide_gscore>  (1) 
-5.5588788193173055

>  <r_i_glide_gscore_strain>  (1) 
0

>  <r_i_glide_hbond>  (1) 
0

>  <r_i_glide_ligand_efficiency>  (1) 
-0.56835619965617246

>  <r_i_glide_ligand_efficiency_ln>  (1) 
-1.5998894269627146

>  <r_i_glide_ligand_efficiency_sa>  (1) 
-1.1822285366360625

>  <r_i_glide_lipo>  (1) 
-1.9068494246807859

>  <r_i_glide_metal>  (1) 
-0

>  <r_i_glide_rewards>  (1) 
-2.6333333333333333

>  <r_lp_Energy>  (1) 
12.810587999999999

>  <s_epik_cmdline>  (1) 
J2VwaWtfcHl0aG9uJywgJy1waHQnLCAnMS4wJywgJy1waCcsICc3LjQnLCAnLXRuJywgJzgnLCAnLW1hJywgJzUwMCcsICctaW1hZScsICc8aW5maWxlLm1hZT4nLCAnLW9tYWUnLCAnPG91dGZpbGUubWFlPic=

>  <s_epik_input>  (1) 
TzFbQ0gyXVtDSDJdYyhjMTIpW2NIXW5bY0hdW2NIXTI=

>  <s_glide_docking_method>  (1) 
confgen

>  <s_i_glide_gridfile>  (1) 
gpcr_drd2_6luq_protein_autoprepared_prepared

>  <s_lp_Force_Field>  (1) 
S-OPLS

>  <s_lp_Variant>  (1) 
Pocket2Mol_34-2

>  <s_m_source_file>  (1) 
generated_generic_title2_ligand_Pocket2Mol_2026-06-23_prepared.sdf

>  <GenAI_Model>  (1) 
Pocket2Mol

>  <Protein>  (1) 
generic_title2

$$$$
Pocket2Mol_34
     RDKit          3D

  0  0  0  0  0  0  0  0  0  0999 V3000
M  V30 BEGIN CTAB
M  V30 COUNTS 16 17 0 0 1
M  V30 BEGIN ATOM
M  V30 1 C 11.058677 9.036140 -6.513144 0
M  V30 2 O 11.719560 9.792709 -5.424199 0
M  V30 3 C 11.858122 8.829927 -4.490051 0
M  V30 4 C 11.375412 7.622403 -4.806023 0
M  V30 5 C 11.476414 6.559950 -3.897690 0
M  V30 6 N 12.059484 6.694106 -2.675226 0
M  V30 7 C 12.544994 7.930550 -2.369820 0
M  V30 8 C 12.466729 9.031355 -3.249887 0
M  V30 9 C 10.757936 7.514859 -6.127531 0
M  V30 10 H 10.129403 9.536474 -6.778613 0
M  V30 11 H 11.695780 9.076246 -7.397708 0
M  V30 12 H 11.084947 5.590227 -4.144747 0
M  V30 13 H 13.004491 8.039047 -1.398950 0
M  V30 14 H 12.863758 9.990227 -2.972583 0
M  V30 15 H 11.270039 6.794893 -6.767291 0
M  V30 16 H 9.691566 7.293173 -6.059946 0
M  V30 END ATOM
M  V30 BEGIN BOND
M  V30 1 1 2 1
M  V30 2 1 3 2
M  V30 3 2 4 3
M  V30 4 1 5 4
M  V30 5 2 6 5
M  V30 6 1 7 6
M  V30 7 1 8 3
M  V30 8 2 8 7
M  V30 9 1 9 1
M  V30 10 1 9 4
M  V30 11 1 10 1
M  V30 12 1 11 1
M  V30 13 1 12 5
M  V30 14 1 13 7
M  V30 15 1 14 8
M  V30 16 1 15 9
M  V30 17 1 16 9
M  V30 END BOND
M  V30 END CTAB
M  END
>  <i_epik_Tot_Q>  (1) 
0

>  <i_epik_Tot_abs_Q>  (1) 
0

>  <i_i_glide_confnum>  (1) 
1

>  <i_i_glide_lignum>  (1) 
39

>  <i_i_glide_posenum>  (1) 
305

>  <i_i_glide_rotatable_bonds>  (1) 
0

>  <i_lp_mmshare_version>  (1) 
72125

>  <i_m_source_file_index>  (1) 
35

>  <i_f3d_flags>  (1) 
0

>  <num_sample>  (1) 
50

>  <b_lp_Chiralities_Consistent>  (1) 
1

>  <r_epik_Charging_Adjusted_Penalty>  (1) 
0.44367302241175416

>  <r_epik_Ionization_Penalty>  (1) 
0.4436730224117541

>  <r_epik_Ionization_Penalty_Charging>  (1) 
0

>  <r_epik_Ionization_Penalty_Neutral>  (1) 
0.4436730224117541

>  <r_epik_State_Penalty>  (1) 
0.44367302241175416

>  <r_glide_ring_energy>  (1) 
0

>  <r_i_docking_score>  (1) 
-5.0879136022931943

>  <r_i_glide_ecoul>  (1) 
-0.87082171059091162

>  <r_i_glide_eff_state_penalty>  (1) 
0.44367302241175416

>  <r_i_glide_einternal>  (1) 
0

>  <r_i_glide_emodel>  (1) 
-27.207772676895726

>  <r_i_glide_emodel_strain>  (1) 
0

>  <r_i_glide_energy>  (1) 
-19.900470977240548

>  <r_i_glide_erotb>  (1) 
0

>  <r_i_glide_esite>  (1) 
0

>  <r_i_glide_evdw>  (1) 
-19.029649266649638

>  <r_i_glide_gscore>  (1) 
-5.5315866247049481

>  <r_i_glide_gscore_strain>  (1) 
0

>  <r_i_glide_hbond>  (1) 
0

>  <r_i_glide_ligand_efficiency>  (1) 
-0.5653237335881327

>  <r_i_glide_ligand_efficiency_ln>  (1) 
-1.5913532125204073

>  <r_i_glide_ligand_efficiency_sa>  (1) 
-1.1759207530239795

>  <r_i_glide_lipo>  (1) 
-1.8328142381171617

>  <r_i_glide_metal>  (1) 
-0

>  <r_i_glide_rewards>  (1) 
-2.6166666666666667

>  <r_lp_Energy>  (1) 
12.810587999999999

>  <s_epik_cmdline>  (1) 
J2VwaWtfcHl0aG9uJywgJy1waHQnLCAnMS4wJywgJy1waCcsICc3LjQnLCAnLXRuJywgJzgnLCAnLW1hJywgJzUwMCcsICctaW1hZScsICc8aW5maWxlLm1hZT4nLCAnLW9tYWUnLCAnPG91dGZpbGUubWFlPic=

>  <s_epik_input>  (1) 
TzFbQ0gyXVtDSDJdYyhjMTIpW2NIXW5bY0hdW2NIXTI=

>  <s_glide_docking_method>  (1) 
confgen

>  <s_i_glide_gridfile>  (1) 
gpcr_drd2_6luq_protein_autoprepared_prepared

>  <s_lp_Force_Field>  (1) 
S-OPLS

>  <s_lp_Variant>  (1) 
Pocket2Mol_34-2

>  <s_m_source_file>  (1) 
generated_generic_title2_ligand_Pocket2Mol_2026-06-23_prepared.sdf

>  <GenAI_Model>  (1) 
Pocket2Mol

>  <Protein>  (1) 
generic_title2

$$$$
Pocket2Mol_28
     RDKit          3D

  0  0  0  0  0  0  0  0  0  0999 V3000
M  V30 BEGIN CTAB
M  V30 COUNTS 18 18 0 0 1
M  V30 BEGIN ATOM
M  V30 1 C 10.939955 6.894872 -5.742295 0
M  V30 2 O 9.715009 6.580169 -6.385035 0
M  V30 3 C 9.742704 6.642675 -7.802238 0
M  V30 4 C 10.061708 8.054930 -8.327664 0
M  V30 5 O 9.775410 8.092162 -9.708656 0
M  V30 6 C 11.137158 8.421639 -5.701844 0
M  V30 7 C 11.537651 8.441711 -8.111516 0
M  V30 8 O 11.830951 8.968664 -6.819490 0
M  V30 9 H 10.847599 6.529210 -4.719260 0
M  V30 10 H 11.785331 6.365797 -6.182481 0
M  V30 11 H 8.751578 6.341881 -8.144984 0
M  V30 12 H 10.442537 5.904723 -8.197660 0
M  V30 13 H 9.402552 8.790226 -7.863823 0
M  V30 14 H 8.827683 7.990222 -9.795901 0
M  V30 15 H 10.175413 8.922381 -5.585039 0
M  V30 16 H 11.719293 8.685010 -4.818509 0
M  V30 17 H 12.188174 7.590230 -8.313719 0
M  V30 18 H 11.828783 9.213493 -8.825245 0
M  V30 END ATOM
M  V30 BEGIN BOND
M  V30 1 1 2 1
M  V30 2 1 3 2
M  V30 3 1 4 3
M  V30 4 1 5 4
M  V30 5 1 6 1
M  V30 6 1 7 4
M  V30 7 1 8 6
M  V30 8 1 8 7
M  V30 9 1 9 1
M  V30 10 1 10 1
M  V30 11 1 11 3
M  V30 12 1 12 3
M  V30 13 1 13 4
M  V30 14 1 14 5
M  V30 15 1 15 6
M  V30 16 1 16 6
M  V30 17 1 17 7
M  V30 18 1 18 7
M  V30 END BOND
M  V30 END CTAB
M  END
>  <i_epik_Tot_Q>  (1) 
0

>  <i_epik_Tot_abs_Q>  (1) 
0

>  <i_i_glide_confnum>  (1) 
4

>  <i_i_glide_lignum>  (1) 
32

>  <i_i_glide_posenum>  (1) 
288

>  <i_i_glide_rotatable_bonds>  (1) 
1

>  <i_lp_mmshare_version>  (1) 
72125

>  <i_m_source_file_index>  (1) 
29

>  <i_f3d_flags>  (1) 
0

>  <num_sample>  (1) 
50

>  <b_lp_Chiralities_Consistent>  (1) 
1

>  <r_epik_Charging_Adjusted_Penalty>  (1) 
0

>  <r_epik_Ionization_Penalty>  (1) 
1.4561355789117501e-07

>  <r_epik_Ionization_Penalty_Charging>  (1) 
0

>  <r_epik_Ionization_Penalty_Neutral>  (1) 
1.4561355789117501e-07

>  <r_epik_State_Penalty>  (1) 
-0

>  <r_glide_ring_energy>  (1) 
0.067246547245782246

>  <r_i_docking_score>  (1) 
-5.0879027788979982

>  <r_i_glide_ecoul>  (1) 
-3.2563084829007374

>  <r_i_glide_eff_state_penalty>  (1) 
-0

>  <r_i_glide_einternal>  (1) 
0.34702136636643877

>  <r_i_glide_emodel>  (1) 
-28.08354567858278

>  <r_i_glide_emodel_strain>  (1) 
0

>  <r_i_glide_energy>  (1) 
-21.115712458157521

>  <r_i_glide_erotb>  (1) 
0

>  <r_i_glide_esite>  (1) 
0

>  <r_i_glide_evdw>  (1) 
-17.859403975256782

>  <r_i_glide_gscore>  (1) 
-5.0879027788979982

>  <r_i_glide_gscore_strain>  (1) 
0

>  <r_i_glide_hbond>  (1) 
-0.16

>  <r_i_glide_ligand_efficiency>  (1) 
-0.63598784736224978

>  <r_i_glide_ligand_efficiency_ln>  (1) 
-1.652216062566509

>  <r_i_glide_ligand_efficiency_sa>  (1) 
-1.2719756947244998

>  <r_i_glide_lipo>  (1) 
-0.85704914875739568

>  <r_i_glide_metal>  (1) 
-0

>  <r_i_glide_rewards>  (1) 
-2.6894371589426522

>  <r_lp_Energy>  (1) 
13.809562999999999

>  <r_lp_tautomer_probability>  (1) 
1

>  <s_epik_cmdline>  (1) 
J2VwaWtfcHl0aG9uJywgJy1waHQnLCAnMS4wJywgJy1waCcsICc3LjQnLCAnLXRuJywgJzgnLCAnLW1hJywgJzUwMCcsICctaW1hZScsICc8aW5maWxlLm1hZT4nLCAnLW9tYWUnLCAnPG91dGZpbGUubWFlPic=

>  <s_epik_input>  (1) 
W0NIMl0xT1tDSDJdW0NIMl1PW0NIMl1bQ0hdMVtPSF0=

>  <s_glide_docking_method>  (1) 
confgen

>  <s_i_glide_gridfile>  (1) 
gpcr_drd2_6luq_protein_autoprepared_prepared

>  <s_lp_Force_Field>  (1) 
S-OPLS

>  <s_lp_Variant>  (1) 
Pocket2Mol_28-1

>  <s_m_source_file>  (1) 
generated_generic_title2_ligand_Pocket2Mol_2026-06-23_prepared.sdf

>  <GenAI_Model>  (1) 
Pocket2Mol

>  <Protein>  (1) 
generic_title2

$$$$
Pocket2Mol_25
     RDKit          3D

  0  0  0  0  0  0  0  0  0  0999 V3000
M  V30 BEGIN CTAB
M  V30 COUNTS 15 15 0 0 1
M  V30 BEGIN ATOM
M  V30 1 C 10.108666 6.742645 -7.583902 0
M  V30 2 O 11.375410 7.202230 -7.104429 0
M  V30 3 C 11.725479 8.529146 -7.510843 0
M  V30 4 C 11.817890 8.676137 -9.052807 0 CFG=1
M  V30 5 O 13.119395 8.390229 -9.526199 0
M  V30 6 C 10.009681 6.950533 -9.076451 0
M  V30 7 C 10.783306 7.816143 -9.737899 0
M  V30 8 H 9.290810 7.264969 -7.085317 0
M  V30 9 H 10.011531 5.680987 -7.356326 0
M  V30 10 H 12.659229 8.829960 -7.035543 0
M  V30 11 H 10.955653 9.197544 -7.124859 0
M  V30 12 H 11.612849 9.713085 -9.320059 0
M  V30 13 H 13.601128 9.211707 -9.585034 0
M  V30 14 H 9.272468 6.365138 -9.607319 0
M  V30 15 H 10.676296 7.931181 -10.806171 0
M  V30 END ATOM
M  V30 BEGIN BOND
M  V30 1 1 2 1
M  V30 2 1 3 2
M  V30 3 1 4 3
M  V30 4 1 5 4
M  V30 5 1 6 1
M  V30 6 1 7 4
M  V30 7 2 7 6
M  V30 8 1 8 1
M  V30 9 1 9 1
M  V30 10 1 10 3
M  V30 11 1 11 3
M  V30 12 1 4 12 CFG=1
M  V30 13 1 13 5
M  V30 14 1 14 6
M  V30 15 1 15 7
M  V30 END BOND
M  V30 END CTAB
M  END
>  <i_epik_Tot_Q>  (1) 
0

>  <i_epik_Tot_abs_Q>  (1) 
0

>  <i_i_glide_confnum>  (1) 
2

>  <i_i_glide_lignum>  (1) 
29

>  <i_i_glide_posenum>  (1) 
228

>  <i_i_glide_rotatable_bonds>  (1) 
1

>  <i_lp_mmshare_version>  (1) 
72125

>  <i_m_source_file_index>  (1) 
26

>  <i_f3d_flags>  (1) 
0

>  <num_sample>  (1) 
50

>  <b_lp_Chiralities_Consistent>  (1) 
1

>  <r_epik_Charging_Adjusted_Penalty>  (1) 
0

>  <r_epik_Ionization_Penalty>  (1) 
7.567869706951744e-07

>  <r_epik_Ionization_Penalty_Charging>  (1) 
0

>  <r_epik_Ionization_Penalty_Neutral>  (1) 
7.567869706951744e-07

>  <r_epik_State_Penalty>  (1) 
-0

>  <r_glide_ring_energy>  (1) 
0.3802776858136746

>  <r_i_docking_score>  (1) 
-5.0805762520511415

>  <r_i_glide_ecoul>  (1) 
-4.4562737483031682

>  <r_i_glide_eff_state_penalty>  (1) 
-0

>  <r_i_glide_einternal>  (1) 
0.91845473118826004

>  <r_i_glide_emodel>  (1) 
-25.143174085110889

>  <r_i_glide_emodel_strain>  (1) 
0.11342427617556528

>  <r_i_glide_energy>  (1) 
-19.300229079040271

>  <r_i_glide_erotb>  (1) 
0

>  <r_i_glide_esite>  (1) 
0

>  <r_i_glide_evdw>  (1) 
-14.843955330737101

>  <r_i_glide_gscore>  (1) 
-5.0805762520511415

>  <r_i_glide_gscore_strain>  (1) 
0

>  <r_i_glide_hbond>  (1) 
-0.32000000000000001

>  <r_i_glide_ligand_efficiency>  (1) 
-0.72579660743587737

>  <r_i_glide_ligand_efficiency_ln>  (1) 
-1.7246202344903041

>  <r_i_glide_ligand_efficiency_sa>  (1) 
-1.3883989627145004

>  <r_i_glide_lipo>  (1) 
-0.63327075660214527

>  <r_i_glide_metal>  (1) 
-0

>  <r_i_glide_rewards>  (1) 
-2.7166666666666668

>  <r_lp_Energy>  (1) 
2.4739009999999997

>  <r_lp_tautomer_probability>  (1) 
1

>  <s_epik_cmdline>  (1) 
J2VwaWtfcHl0aG9uJywgJy1waHQnLCAnMS4wJywgJy1waCcsICc3LjQnLCAnLXRuJywgJzgnLCAnLW1hJywgJzUwMCcsICctaW1hZScsICc8aW5maWxlLm1hZT4nLCAnLW9tYWUnLCAnPG91dGZpbGUubWFlPic=

>  <s_epik_input>  (1) 
W0NIXTE9W0NIXVtDSDJdT1tDSDJdW0NASF0xW09IXQ==

>  <s_glide_docking_method>  (1) 
confgen

>  <s_i_glide_gridfile>  (1) 
gpcr_drd2_6luq_protein_autoprepared_prepared

>  <s_lp_Force_Field>  (1) 
S-OPLS

>  <s_lp_Variant>  (1) 
Pocket2Mol_25-1

>  <s_m_source_file>  (1) 
generated_generic_title2_ligand_Pocket2Mol_2026-06-23_prepared.sdf

>  <GenAI_Model>  (1) 
Pocket2Mol

>  <Protein>  (1) 
generic_title2

$$$$
Pocket2Mol_26
     RDKit          3D

  0  0  0  0  0  0  0  0  0  0999 V3000
M  V30 BEGIN CTAB
M  V30 COUNTS 15 15 0 0 1
M  V30 BEGIN ATOM
M  V30 1 C 11.447473 9.586554 -5.324573 0
M  V30 2 O 12.043400 9.500301 -4.002693 0
M  V30 3 C 12.175406 8.277113 -3.353577 0
M  V30 4 C 12.765749 8.390378 -1.970262 0
M  V30 5 C 11.030311 8.250334 -5.903095 0
M  V30 6 C 11.775420 7.125015 -3.931122 0
M  V30 7 C 11.193168 7.113394 -5.237033 0
M  V30 8 H 10.575410 10.239006 -5.272899 0
M  V30 9 H 12.162589 10.056287 -5.999922 0
M  V30 10 H 12.802592 7.415067 -1.486657 0
M  V30 11 H 13.775211 8.790604 -2.006389 0
M  V30 12 H 12.155374 9.055680 -1.358869 0
M  V30 13 H 10.588916 8.249650 -6.889753 0
M  V30 14 H 11.884991 6.194056 -3.393013 0
M  V30 15 H 10.881833 6.178105 -5.680370 0
M  V30 END ATOM
M  V30 BEGIN BOND
M  V30 1 1 2 1
M  V30 2 1 3 2
M  V30 3 1 4 3
M  V30 4 1 5 1
M  V30 5 2 6 3
M  V30 6 2 7 5
M  V30 7 1 7 6
M  V30 8 1 8 1
M  V30 9 1 9 1
M  V30 10 1 10 4
M  V30 11 1 11 4
M  V30 12 1 12 4
M  V30 13 1 13 5
M  V30 14 1 14 6
M  V30 15 1 15 7
M  V30 END BOND
M  V30 END CTAB
M  END
>  <i_epik_Tot_Q>  (1) 
0

>  <i_epik_Tot_abs_Q>  (1) 
0

>  <i_i_glide_confnum>  (1) 
1

>  <i_i_glide_lignum>  (1) 
30

>  <i_i_glide_posenum>  (1) 
127

>  <i_i_glide_rotatable_bonds>  (1) 
0

>  <i_lp_mmshare_version>  (1) 
72125

>  <i_m_source_file_index>  (1) 
27

>  <i_f3d_flags>  (1) 
0

>  <num_sample>  (1) 
50

>  <b_lp_Chiralities_Consistent>  (1) 
1

>  <r_epik_Charging_Adjusted_Penalty>  (1) 
0

>  <r_epik_Ionization_Penalty>  (1) 
0

>  <r_epik_Ionization_Penalty_Charging>  (1) 
0

>  <r_epik_Ionization_Penalty_Neutral>  (1) 
0

>  <r_epik_State_Penalty>  (1) 
-0

>  <r_glide_ring_energy>  (1) 
0

>  <r_i_docking_score>  (1) 
-5.0708271222185237

>  <r_i_glide_ecoul>  (1) 
-0.71769574767808952

>  <r_i_glide_eff_state_penalty>  (1) 
-0

>  <r_i_glide_einternal>  (1) 
0

>  <r_i_glide_emodel>  (1) 
-23.116487831046364

>  <r_i_glide_emodel_strain>  (1) 
0.012916895194491573

>  <r_i_glide_energy>  (1) 
-17.5707033210555

>  <r_i_glide_erotb>  (1) 
0

>  <r_i_glide_esite>  (1) 
0

>  <r_i_glide_evdw>  (1) 
-16.853007573377411

>  <r_i_glide_gscore>  (1) 
-5.0708271222185237

>  <r_i_glide_gscore_strain>  (1) 
0

>  <r_i_glide_hbond>  (1) 
0

>  <r_i_glide_ligand_efficiency>  (1) 
-0.72440387460264621

>  <r_i_glide_ligand_efficiency_ln>  (1) 
-1.7213108566276616

>  <r_i_glide_ligand_efficiency_sa>  (1) 
-1.3857347606485415

>  <r_i_glide_lipo>  (1) 
-1.7500761324165022

>  <r_i_glide_metal>  (1) 
-0

>  <r_i_glide_rewards>  (1) 
-2.370446248981438

>  <r_lp_Energy>  (1) 
4.7929789999999999

>  <r_lp_tautomer_probability>  (1) 
1

>  <s_epik_cmdline>  (1) 
J2VwaWtfcHl0aG9uJywgJy1waHQnLCAnMS4wJywgJy1waCcsICc3LjQnLCAnLXRuJywgJzgnLCAnLW1hJywgJzUwMCcsICctaW1hZScsICc8aW5maWxlLm1hZT4nLCAnLW9tYWUnLCAnPG91dGZpbGUubWFlPic=

>  <s_epik_input>  (1) 
TzFbQ0gyXVtDSF09W0NIXVtDSF09QzFbQ0gzXQ==

>  <s_glide_docking_method>  (1) 
confgen

>  <s_i_glide_gridfile>  (1) 
gpcr_drd2_6luq_protein_autoprepared_prepared

>  <s_lp_Force_Field>  (1) 
S-OPLS

>  <s_lp_Variant>  (1) 
Pocket2Mol_26-1

>  <s_m_source_file>  (1) 
generated_generic_title2_ligand_Pocket2Mol_2026-06-23_prepared.sdf

>  <GenAI_Model>  (1) 
Pocket2Mol

>  <Protein>  (1) 
generic_title2

$$$$
Pocket2Mol_27
     RDKit          3D

  0  0  0  0  0  0  0  0  0  0999 V3000
M  V30 BEGIN CTAB
M  V30 COUNTS 13 13 0 0 1
M  V30 BEGIN ATOM
M  V30 1 N 11.783352 6.649188 -3.045398 0
M  V30 2 C 11.375367 6.583510 -4.365406 0
M  V30 3 C 11.347250 7.653324 -5.185026 0
M  V30 4 C 12.188623 7.867553 -2.526133 0
M  V30 5 O 10.946527 7.580051 -6.461816 0
M  V30 6 C 11.775403 8.983593 -4.664843 0
M  V30 7 O 11.771361 9.992716 -5.366171 0
M  V30 8 C 12.208465 9.013782 -3.240595 0
M  V30 9 H 11.075810 5.593729 -4.685433 0
M  V30 10 H 12.490563 7.826406 -1.490596 0
M  V30 11 H 10.664117 6.693458 -6.625806 0
M  V30 12 H 12.529606 9.948771 -2.805694 0
M  V30 13 H 11.777702 5.818724 -2.465825 0
M  V30 END ATOM
M  V30 BEGIN BOND
M  V30 1 1 2 1
M  V30 2 2 3 2
M  V30 3 1 4 1
M  V30 4 1 5 3
M  V30 5 1 6 3
M  V30 6 2 7 6
M  V30 7 2 8 4
M  V30 8 1 8 6
M  V30 9 1 9 2
M  V30 10 1 10 4
M  V30 11 1 11 5
M  V30 12 1 12 8
M  V30 13 1 13 1
M  V30 END BOND
M  V30 END CTAB
M  END
>  <i_epik_Tot_Q>  (1) 
0

>  <i_epik_Tot_abs_Q>  (1) 
0

>  <i_i_glide_confnum>  (1) 
1

>  <i_i_glide_lignum>  (1) 
31

>  <i_i_glide_posenum>  (1) 
287

>  <i_i_glide_rotatable_bonds>  (1) 
1

>  <i_lp_mmshare_version>  (1) 
72125

>  <i_m_source_file_index>  (1) 
28

>  <i_f3d_flags>  (1) 
0

>  <num_sample>  (1) 
50

>  <b_lp_Chiralities_Consistent>  (1) 
1

>  <r_epik_Charging_Adjusted_Penalty>  (1) 
0.000203171374695584

>  <r_epik_Ionization_Penalty>  (1) 
0.014901896624084464

>  <r_epik_Ionization_Penalty_Charging>  (1) 
0.000203171374695584

>  <r_epik_Ionization_Penalty_Neutral>  (1) 
0.01469872524938888

>  <r_epik_State_Penalty>  (1) 
-0

>  <r_glide_ring_energy>  (1) 
0

>  <r_i_docking_score>  (1) 
-5.0676075317181306

>  <r_i_glide_ecoul>  (1) 
-2.4453207858921693

>  <r_i_glide_eff_state_penalty>  (1) 
-0

>  <r_i_glide_einternal>  (1) 
0.018955616378204754

>  <r_i_glide_emodel>  (1) 
-28.526085666936254

>  <r_i_glide_emodel_strain>  (1) 
0

>  <r_i_glide_energy>  (1) 
-21.20083506148416

>  <r_i_glide_erotb>  (1) 
0

>  <r_i_glide_esite>  (1) 
0

>  <r_i_glide_evdw>  (1) 
-18.755514275591992

>  <r_i_glide_gscore>  (1) 
-5.0676075317181306

>  <r_i_glide_gscore_strain>  (1) 
0

>  <r_i_glide_hbond>  (1) 
0

>  <r_i_glide_ligand_efficiency>  (1) 
-0.63345094146476633

>  <r_i_glide_ligand_efficiency_ln>  (1) 
-1.6456255016140848

>  <r_i_glide_ligand_efficiency_sa>  (1) 
-1.2669018829295329

>  <r_i_glide_lipo>  (1) 
-1.5130337000547056

>  <r_i_glide_metal>  (1) 
-0

>  <r_i_glide_rewards>  (1) 
-2.25

>  <r_lp_Energy>  (1) 
11.500328

>  <r_lp_tautomer_probability>  (1) 
1

>  <s_epik_cmdline>  (1) 
J2VwaWtfcHl0aG9uJywgJy1waHQnLCAnMS4wJywgJy1waCcsICc3LjQnLCAnLXRuJywgJzgnLCAnLW1hJywgJzUwMCcsICctaW1hZScsICc8aW5maWxlLm1hZT4nLCAnLW9tYWUnLCAnPG91dGZpbGUubWFlPic=

>  <s_epik_input>  (1) 
W09IXWMxW2NIXW5bY0hdW2NIXWMxW09IXQ==

>  <s_glide_docking_method>  (1) 
confgen

>  <s_i_glide_gridfile>  (1) 
gpcr_drd2_6luq_protein_autoprepared_prepared

>  <s_lp_Force_Field>  (1) 
S-OPLS

>  <s_lp_Variant>  (1) 
Pocket2Mol_27-1

>  <s_m_source_file>  (1) 
generated_generic_title2_ligand_Pocket2Mol_2026-06-23_prepared.sdf

>  <GenAI_Model>  (1) 
Pocket2Mol

>  <Protein>  (1) 
generic_title2

$$$$
Pocket2Mol_19
     RDKit          3D

  0  0  0  0  0  0  0  0  0  0999 V3000
M  V30 BEGIN CTAB
M  V30 COUNTS 12 12 0 0 1
M  V30 BEGIN ATOM
M  V30 1 N 11.856890 8.830041 -4.778257 0
M  V30 2 C 12.387922 9.053282 -3.553847 0
M  V30 3 C 12.436470 8.085815 -2.536171 0
M  V30 4 C 11.369179 7.591353 -5.019108 0
M  V30 5 O 12.975409 8.390232 -1.319141 0
M  V30 6 C 11.920323 6.807356 -2.795285 0
M  V30 7 C 11.375411 6.555531 -4.065155 0
M  V30 8 H 12.787747 10.030401 -3.380658 0
M  V30 9 H 10.955741 7.423539 -6.002364 0
M  V30 10 H 13.266073 9.293508 -1.247263 0
M  V30 11 H 11.940768 6.036654 -2.038279 0
M  V30 12 H 10.967659 5.590227 -4.306218 0
M  V30 END ATOM
M  V30 BEGIN BOND
M  V30 1 2 2 1
M  V30 2 1 3 2
M  V30 3 1 4 1
M  V30 4 1 5 3
M  V30 5 2 6 3
M  V30 6 2 7 4
M  V30 7 1 7 6
M  V30 8 1 8 2
M  V30 9 1 9 4
M  V30 10 1 10 5
M  V30 11 1 11 6
M  V30 12 1 12 7
M  V30 END BOND
M  V30 END CTAB
M  END
>  <i_epik_Tot_Q>  (1) 
0

>  <i_epik_Tot_abs_Q>  (1) 
0

>  <i_i_glide_confnum>  (1) 
1

>  <i_i_glide_lignum>  (1) 
23

>  <i_i_glide_posenum>  (1) 
10

>  <i_i_glide_rotatable_bonds>  (1) 
1

>  <i_lp_mmshare_version>  (1) 
72125

>  <i_m_source_file_index>  (1) 
20

>  <i_f3d_flags>  (1) 
0

>  <num_sample>  (1) 
50

>  <b_lp_Chiralities_Consistent>  (1) 
1

>  <r_epik_Charging_Adjusted_Penalty>  (1) 
0.49104251329211085

>  <r_epik_Ionization_Penalty>  (1) 
0.049438115990627488

>  <r_epik_Ionization_Penalty_Charging>  (1) 
0

>  <r_epik_Ionization_Penalty_Neutral>  (1) 
0.049438115990627488

>  <r_epik_State_Penalty>  (1) 
0.49104251329211085

>  <r_glide_ring_energy>  (1) 
0

>  <r_i_docking_score>  (1) 
-5.0593921146020691

>  <r_i_glide_ecoul>  (1) 
-4.268772506939106

>  <r_i_glide_eff_state_penalty>  (1) 
0.49104251329211085

>  <r_i_glide_einternal>  (1) 
0.0064901734231181119

>  <r_i_glide_emodel>  (1) 
-25.549134615613578

>  <r_i_glide_emodel_strain>  (1) 
0

>  <r_i_glide_energy>  (1) 
-18.295703472071736

>  <r_i_glide_erotb>  (1) 
0

>  <r_i_glide_esite>  (1) 
0

>  <r_i_glide_evdw>  (1) 
-14.026930965132632

>  <r_i_glide_gscore>  (1) 
-5.5504346278941803

>  <r_i_glide_gscore_strain>  (1) 
0

>  <r_i_glide_hbond>  (1) 
-0.32000000000000001

>  <r_i_glide_ligand_efficiency>  (1) 
-0.7227703020860099

>  <r_i_glide_ligand_efficiency_ln>  (1) 
-1.7174292013707551

>  <r_i_glide_ligand_efficiency_sa>  (1) 
-1.3826098488421479

>  <r_i_glide_lipo>  (1) 
-1.4387722035966828

>  <r_i_glide_metal>  (1) 
-0

>  <r_i_glide_rewards>  (1) 
-2.4500000000000002

>  <r_lp_Energy>  (1) 
10.560834

>  <r_lp_tautomer_probability>  (1) 
0.43658000000000002

>  <s_epik_cmdline>  (1) 
J2VwaWtfcHl0aG9uJywgJy1waHQnLCAnMS4wJywgJy1waCcsICc3LjQnLCAnLXRuJywgJzgnLCAnLW1hJywgJzUwMCcsICctaW1hZScsICc8aW5maWxlLm1hZT4nLCAnLW9tYWUnLCAnPG91dGZpbGUubWFlPic=

>  <s_epik_input>  (1) 
W2NIXTFbY0hdW2NIXW5bY0hdYzFbT0hd

>  <s_glide_docking_method>  (1) 
confgen

>  <s_i_glide_gridfile>  (1) 
gpcr_drd2_6luq_protein_autoprepared_prepared

>  <s_lp_Force_Field>  (1) 
S-OPLS

>  <s_lp_Variant>  (1) 
Pocket2Mol_19-2

>  <s_m_source_file>  (1) 
generated_generic_title2_ligand_Pocket2Mol_2026-06-23_prepared.sdf

>  <GenAI_Model>  (1) 
Pocket2Mol

>  <Protein>  (1) 
generic_title2

$$$$
Pocket2Mol_41
     RDKit          3D

  0  0  0  0  0  0  0  0  0  0999 V3000
M  V30 BEGIN CTAB
M  V30 COUNTS 23 24 0 0 1
M  V30 BEGIN ATOM
M  V30 1 C 11.123767 8.617099 -5.538162 0
M  V30 2 O 10.975421 9.190230 -6.824430 0
M  V30 3 C 11.159218 8.185083 -7.817749 0 CFG=2
M  V30 4 C 12.523807 8.390218 -8.496640 0
M  V30 5 C 10.011270 8.211636 -8.832737 0
M  V30 6 C 10.575421 7.207026 -5.699366 0
M  V30 7 C 9.813878 6.747540 -9.217037 0
M  V30 8 C 11.025423 6.831056 -7.100932 0 CFG=1
M  V30 9 C 10.016168 5.990232 -7.906405 0
M  V30 10 H 12.175413 8.598195 -5.264553 0
M  V30 11 H 10.591806 9.197492 -4.785030 0
M  V30 12 H 12.741520 7.590233 -9.202734 0
M  V30 13 H 12.543404 9.321794 -9.059922 0
M  V30 14 H 13.332512 8.423003 -7.767276 0
M  V30 15 H 9.100606 8.579063 -8.355783 0
M  V30 16 H 10.208655 8.848431 -9.693997 0
M  V30 17 H 10.929298 6.515609 -4.934001 0
M  V30 18 H 9.487587 7.247609 -5.640995 0
M  V30 19 H 8.843565 6.547434 -9.669928 0
M  V30 20 H 10.575406 6.454714 -9.938138 0
M  V30 21 H 11.994235 6.334573 -7.050423 0
M  V30 22 H 9.060034 5.912634 -7.386690 0
M  V30 23 H 10.372257 4.975662 -8.081617 0
M  V30 END ATOM
M  V30 BEGIN BOND
M  V30 1 1 2 1
M  V30 2 1 3 2
M  V30 3 1 3 4 CFG=3
M  V30 4 1 5 3
M  V30 5 1 6 1
M  V30 6 1 7 5
M  V30 7 1 8 3
M  V30 8 1 8 6
M  V30 9 1 9 7
M  V30 10 1 9 8
M  V30 11 1 10 1
M  V30 12 1 11 1
M  V30 13 1 12 4
M  V30 14 1 13 4
M  V30 15 1 14 4
M  V30 16 1 15 5
M  V30 17 1 16 5
M  V30 18 1 17 6
M  V30 19 1 18 6
M  V30 20 1 19 7
M  V30 21 1 20 7
M  V30 22 1 8 21 CFG=1
M  V30 23 1 22 9
M  V30 24 1 23 9
M  V30 END BOND
M  V30 END CTAB
M  END
>  <i_epik_Tot_Q>  (1) 
0

>  <i_epik_Tot_abs_Q>  (1) 
0

>  <i_i_glide_confnum>  (1) 
4

>  <i_i_glide_lignum>  (1) 
46

>  <i_i_glide_posenum>  (1) 
157

>  <i_i_glide_rotatable_bonds>  (1) 
0

>  <i_lp_mmshare_version>  (1) 
72125

>  <i_m_source_file_index>  (1) 
42

>  <i_f3d_flags>  (1) 
0

>  <num_sample>  (1) 
50

>  <b_lp_Chiralities_Consistent>  (1) 
1

>  <r_epik_Charging_Adjusted_Penalty>  (1) 
0

>  <r_epik_Ionization_Penalty>  (1) 
2.4347883345708157e-11

>  <r_epik_Ionization_Penalty_Charging>  (1) 
0

>  <r_epik_Ionization_Penalty_Neutral>  (1) 
2.4347883345708157e-11

>  <r_epik_State_Penalty>  (1) 
-0

>  <r_glide_ring_energy>  (1) 
1.4300080397860451

>  <r_i_docking_score>  (1) 
-5.0574297712510967

>  <r_i_glide_ecoul>  (1) 
-0.3455253496174816

>  <r_i_glide_eff_state_penalty>  (1) 
-0

>  <r_i_glide_einternal>  (1) 
0

>  <r_i_glide_emodel>  (1) 
-23.973175855188966

>  <r_i_glide_emodel_strain>  (1) 
0

>  <r_i_glide_energy>  (1) 
-18.536055757045329

>  <r_i_glide_erotb>  (1) 
0

>  <r_i_glide_esite>  (1) 
0

>  <r_i_glide_evdw>  (1) 
-18.190530407427847

>  <r_i_glide_gscore>  (1) 
-5.0574297712510967

>  <r_i_glide_gscore_strain>  (1) 
0

>  <r_i_glide_hbond>  (1) 
0

>  <r_i_glide_ligand_efficiency>  (1) 
-0.56193664125012188

>  <r_i_glide_ligand_efficiency_ln>  (1) 
-1.5818187458901354

>  <r_i_glide_ligand_efficiency_sa>  (1) 
-1.1688753170444999

>  <r_i_glide_lipo>  (1) 
-1.2659168453717149

>  <r_i_glide_metal>  (1) 
-0

>  <r_i_glide_rewards>  (1) 
-2.8301576030653672

>  <r_lp_Energy>  (1) 
5.4699619999999998

>  <r_lp_tautomer_probability>  (1) 
1

>  <s_epik_cmdline>  (1) 
J2VwaWtfcHl0aG9uJywgJy1waHQnLCAnMS4wJywgJy1waCcsICc3LjQnLCAnLXRuJywgJzgnLCAnLW1hJywgJzUwMCcsICctaW1hZScsICc8aW5maWxlLm1hZT4nLCAnLW9tYWUnLCAnPG91dGZpbGUubWFlPic=

>  <s_epik_input>  (1) 
TzFbQ0gyXVtDSDJdW0NASF0oW0NAXTEyW0NIM10pW0NIMl1bQ0gyXVtDSDJdMg==

>  <s_glide_docking_method>  (1) 
confgen

>  <s_i_glide_gridfile>  (1) 
gpcr_drd2_6luq_protein_autoprepared_prepared

>  <s_lp_Force_Field>  (1) 
S-OPLS

>  <s_lp_Variant>  (1) 
Pocket2Mol_41-1

>  <s_m_source_file>  (1) 
generated_generic_title2_ligand_Pocket2Mol_2026-06-23_prepared.sdf

>  <GenAI_Model>  (1) 
Pocket2Mol

>  <Protein>  (1) 
generic_title2

$$$$
Pocket2Mol_44
     RDKit          3D

  0  0  0  0  0  0  0  0  0  0999 V3000
M  V30 BEGIN CTAB
M  V30 COUNTS 14 15 0 0 1
M  V30 BEGIN ATOM
M  V30 1 C 11.675005 9.500036 -5.331538 0
M  V30 2 O 10.441391 8.759309 -5.585027 0
M  V30 3 C 10.662883 8.393688 -6.846168 0
M  V30 4 C 11.822662 8.790219 -7.336148 0
M  V30 5 C 12.186636 8.470889 -8.655402 0
M  V30 6 N 11.375854 7.753312 -9.482821 0
M  V30 7 C 10.175216 7.357489 -8.955805 0
M  V30 8 C 9.776151 7.656310 -7.631132 0
M  V30 9 O 12.575400 9.494184 -6.482089 0
M  V30 10 H 11.417711 10.532582 -5.090746 0
M  V30 11 H 12.186925 9.059248 -4.475029 0
M  V30 12 H 13.135309 8.790236 -9.060547 0
M  V30 13 H 9.526705 6.791316 -9.608039 0
M  V30 14 H 8.820236 7.328591 -7.245501 0
M  V30 END ATOM
M  V30 BEGIN BOND
M  V30 1 1 2 1
M  V30 2 1 3 2
M  V30 3 2 4 3
M  V30 4 1 5 4
M  V30 5 2 6 5
M  V30 6 1 7 6
M  V30 7 1 8 3
M  V30 8 2 8 7
M  V30 9 1 9 1
M  V30 10 1 9 4
M  V30 11 1 10 1
M  V30 12 1 11 1
M  V30 13 1 12 5
M  V30 14 1 13 7
M  V30 15 1 14 8
M  V30 END BOND
M  V30 END CTAB
M  END
>  <i_epik_Tot_Q>  (1) 
0

>  <i_epik_Tot_abs_Q>  (1) 
0

>  <i_i_glide_confnum>  (1) 
1

>  <i_i_glide_lignum>  (1) 
49

>  <i_i_glide_posenum>  (1) 
37

>  <i_i_glide_rotatable_bonds>  (1) 
0

>  <i_lp_mmshare_version>  (1) 
72125

>  <i_m_source_file_index>  (1) 
45

>  <i_f3d_flags>  (1) 
0

>  <num_sample>  (1) 
50

>  <b_lp_Chiralities_Consistent>  (1) 
1

>  <r_epik_Charging_Adjusted_Penalty>  (1) 
0.069790075728531922

>  <r_epik_Ionization_Penalty>  (1) 
0.069790075728531936

>  <r_epik_Ionization_Penalty_Charging>  (1) 
0

>  <r_epik_Ionization_Penalty_Neutral>  (1) 
0.069790075728531936

>  <r_epik_State_Penalty>  (1) 
0.069790075728531922

>  <r_glide_ring_energy>  (1) 
0

>  <r_i_docking_score>  (1) 
-5.0379534511460404

>  <r_i_glide_ecoul>  (1) 
-1.4385740435637446

>  <r_i_glide_eff_state_penalty>  (1) 
0.069790075728531922

>  <r_i_glide_einternal>  (1) 
0

>  <r_i_glide_emodel>  (1) 
-25.895458097374028

>  <r_i_glide_emodel_strain>  (1) 
0

>  <r_i_glide_energy>  (1) 
-19.176009321411179

>  <r_i_glide_erotb>  (1) 
0

>  <r_i_glide_esite>  (1) 
0

>  <r_i_glide_evdw>  (1) 
-17.737435277847435

>  <r_i_glide_gscore>  (1) 
-5.1077435268745726

>  <r_i_glide_gscore_strain>  (1) 
0

>  <r_i_glide_hbond>  (1) 
0

>  <r_i_glide_ligand_efficiency>  (1) 
-0.55977260568289333

>  <r_i_glide_ligand_efficiency_ln>  (1) 
-1.5757271124643459

>  <r_i_glide_ligand_efficiency_sa>  (1) 
-1.164373941668599

>  <r_i_glide_lipo>  (1) 
-0.77175232311430531

>  <r_i_glide_metal>  (1) 
-0

>  <r_i_glide_rewards>  (1) 
-3.2333333333333334

>  <r_lp_Energy>  (1) 
21.238785

>  <r_lp_tautomer_probability>  (1) 
1

>  <s_epik_Chemistry_Notes>  (1) 
This compound contains an acetal/aminal-like group ( X-CH(R)-Y where X, Y are N, S, or O) that may be acid/base labile, releasing an aldehyde.

>  <s_epik_cmdline>  (1) 
J2VwaWtfcHl0aG9uJywgJy1waHQnLCAnMS4wJywgJy1waCcsICc3LjQnLCAnLXRuJywgJzgnLCAnLW1hJywgJzUwMCcsICctaW1hZScsICc8aW5maWxlLm1hZT4nLCAnLW9tYWUnLCAnPG91dGZpbGUubWFlPic=

>  <s_epik_input>  (1) 
TzFbQ0gyXU9jKGMxMilbY0hdbltjSF1bY0hdMg==

>  <s_glide_docking_method>  (1) 
confgen

>  <s_i_glide_gridfile>  (1) 
gpcr_drd2_6luq_protein_autoprepared_prepared

>  <s_lp_Force_Field>  (1) 
S-OPLS

>  <s_lp_Variant>  (1) 
Pocket2Mol_44-1

>  <s_m_source_file>  (1) 
generated_generic_title2_ligand_Pocket2Mol_2026-06-23_prepared.sdf

>  <GenAI_Model>  (1) 
Pocket2Mol

>  <Protein>  (1) 
generic_title2

$$$$
Pocket2Mol_12
     RDKit          3D

  0  0  0  0  0  0  0  0  0  0999 V3000
M  V30 BEGIN CTAB
M  V30 COUNTS 15 15 0 0 1
M  V30 BEGIN ATOM
M  V30 1 N 11.942128 9.469085 -4.474916 0
M  V30 2 C 11.375311 8.880793 -5.580937 0
M  V30 3 C 11.250026 7.522116 -5.316412 0
M  V30 4 C 12.175410 8.532587 -3.534278 0
M  V30 5 C 10.681941 6.473609 -6.232206 0
M  V30 6 N 12.732485 8.790227 -2.292580 0
M  V30 7 C 11.775410 7.317906 -3.985025 0
M  V30 8 H 11.111013 9.467335 -6.448949 0
M  V30 9 H 10.355540 6.914971 -7.174291 0
M  V30 10 H 11.434291 5.714923 -6.448535 0
M  V30 11 H 9.823164 5.990980 -5.765816 0
M  V30 12 H 12.888627 8.066939 -1.607000 0
M  V30 13 H 12.148252 10.451156 -4.381297 0
M  V30 14 H 11.841335 6.387469 -3.439588 0
M  V30 15 H 13.027529 9.715560 -1.994127 0
M  V30 END ATOM
M  V30 BEGIN BOND
M  V30 1 1 2 1
M  V30 2 2 3 2
M  V30 3 1 4 1
M  V30 4 1 5 3
M  V30 5 1 6 4
M  V30 6 1 7 3
M  V30 7 2 7 4
M  V30 8 1 8 2
M  V30 9 1 9 5
M  V30 10 1 10 5
M  V30 11 1 11 5
M  V30 12 1 12 6
M  V30 13 1 13 1
M  V30 14 1 14 7
M  V30 15 1 15 6
M  V30 END BOND
M  V30 END CTAB
M  END
>  <i_epik_Tot_Q>  (1) 
0

>  <i_epik_Tot_abs_Q>  (1) 
0

>  <i_i_glide_confnum>  (1) 
1

>  <i_i_glide_lignum>  (1) 
15

>  <i_i_glide_posenum>  (1) 
295

>  <i_i_glide_rotatable_bonds>  (1) 
0

>  <i_lp_mmshare_version>  (1) 
72125

>  <i_m_source_file_index>  (1) 
13

>  <i_f3d_flags>  (1) 
0

>  <num_sample>  (1) 
50

>  <b_lp_Chiralities_Consistent>  (1) 
1

>  <r_epik_Charging_Adjusted_Penalty>  (1) 
0

>  <r_epik_Ionization_Penalty>  (1) 
0.00031849139131666116

>  <r_epik_Ionization_Penalty_Charging>  (1) 
0

>  <r_epik_Ionization_Penalty_Neutral>  (1) 
0.00031849139131666116

>  <r_epik_State_Penalty>  (1) 
-0

>  <r_glide_ring_energy>  (1) 
0

>  <r_i_docking_score>  (1) 
-5.0195738054374095

>  <r_i_glide_ecoul>  (1) 
-1.7759080530921385

>  <r_i_glide_eff_state_penalty>  (1) 
-0

>  <r_i_glide_einternal>  (1) 
0

>  <r_i_glide_emodel>  (1) 
-23.255207227312177

>  <r_i_glide_emodel_strain>  (1) 
0

>  <r_i_glide_energy>  (1) 
-16.86411763232055

>  <r_i_glide_erotb>  (1) 
0

>  <r_i_glide_esite>  (1) 
0

>  <r_i_glide_evdw>  (1) 
-15.088209579228412

>  <r_i_glide_gscore>  (1) 
-5.0195738054374095

>  <r_i_glide_gscore_strain>  (1) 
0

>  <r_i_glide_hbond>  (1) 
-0.32000000000000001

>  <r_i_glide_ligand_efficiency>  (1) 
-0.7170819722053442

>  <r_i_glide_ligand_efficiency_ln>  (1) 
-1.7039127303482331

>  <r_i_glide_ligand_efficiency_sa>  (1) 
-1.3717284652355266

>  <r_i_glide_lipo>  (1) 
-1.3454437851788354

>  <r_i_glide_metal>  (1) 
-0

>  <r_i_glide_rewards>  (1) 
-2.3333333333333335

>  <r_lp_Energy>  (1) 
-3.18065

>  <r_lp_tautomer_probability>  (1) 
1

>  <s_epik_cmdline>  (1) 
J2VwaWtfcHl0aG9uJywgJy1waHQnLCAnMS4wJywgJy1waCcsICc3LjQnLCAnLXRuJywgJzgnLCAnLW1hJywgJzUwMCcsICctaW1hZScsICc8aW5maWxlLm1hZT4nLCAnLW9tYWUnLCAnPG91dGZpbGUubWFlPic=

>  <s_epik_input>  (1) 
W05IMl1DKFtDSDJdMSk9TltDSF09QzFbQ0gzXQ==

>  <s_glide_docking_method>  (1) 
confgen

>  <s_i_glide_gridfile>  (1) 
gpcr_drd2_6luq_protein_autoprepared_prepared

>  <s_lp_Force_Field>  (1) 
S-OPLS

>  <s_lp_Variant>  (1) 
Pocket2Mol_12-1

>  <s_m_source_file>  (1) 
generated_generic_title2_ligand_Pocket2Mol_2026-06-23_prepared.sdf

>  <GenAI_Model>  (1) 
Pocket2Mol

>  <Protein>  (1) 
generic_title2

$$$$
Pocket2Mol_17
     RDKit          3D

  0  0  0  0  0  0  0  0  0  0999 V3000
M  V30 BEGIN CTAB
M  V30 COUNTS 15 15 0 0 1
M  V30 BEGIN ATOM
M  V30 1 C 11.788752 6.775556 -3.510391 0
M  V30 2 O 11.639683 6.439073 -4.980789 0
M  V30 3 C 10.667141 7.366110 -5.727364 0
M  V30 4 C 11.231567 8.766093 -6.017038 0
M  V30 5 O 11.411097 9.649359 -4.772027 0
M  V30 6 C 12.535101 9.187151 -3.830967 0
M  V30 7 C 12.175400 7.962200 -3.013889 0
M  V30 8 H 11.576056 5.972060 -2.820787 0
M  V30 9 H 9.724617 7.441534 -5.185092 0
M  V30 10 H 10.421335 6.899718 -6.681387 0
M  V30 11 H 10.546782 9.273516 -6.696516 0
M  V30 12 H 12.174600 8.685004 -6.557606 0
M  V30 13 H 12.762880 9.990228 -3.130050 0
M  V30 14 H 13.454631 8.998199 -4.384919 0
M  V30 15 H 12.259873 8.070738 -1.942682 0
M  V30 END ATOM
M  V30 BEGIN BOND
M  V30 1 1 2 1
M  V30 2 1 3 2
M  V30 3 1 4 3
M  V30 4 1 5 4
M  V30 5 1 6 5
M  V30 6 2 7 1
M  V30 7 1 7 6
M  V30 8 1 8 1
M  V30 9 1 9 3
M  V30 10 1 10 3
M  V30 11 1 11 4
M  V30 12 1 12 4
M  V30 13 1 13 6
M  V30 14 1 14 6
M  V30 15 1 15 7
M  V30 END BOND
M  V30 END CTAB
M  END
>  <i_epik_Tot_Q>  (1) 
0

>  <i_epik_Tot_abs_Q>  (1) 
0

>  <i_i_glide_confnum>  (1) 
2

>  <i_i_glide_lignum>  (1) 
20

>  <i_i_glide_posenum>  (1) 
156

>  <i_i_glide_rotatable_bonds>  (1) 
0

>  <i_lp_mmshare_version>  (1) 
72125

>  <i_m_source_file_index>  (1) 
18

>  <i_f3d_flags>  (1) 
0

>  <num_sample>  (1) 
50

>  <b_lp_Chiralities_Consistent>  (1) 
1

>  <r_epik_Charging_Adjusted_Penalty>  (1) 
0

>  <r_epik_Ionization_Penalty>  (1) 
5.6701613537443791e-14

>  <r_epik_Ionization_Penalty_Charging>  (1) 
0

>  <r_epik_Ionization_Penalty_Neutral>  (1) 
5.6701613537443791e-14

>  <r_epik_State_Penalty>  (1) 
-0

>  <r_glide_ring_energy>  (1) 
0.00079047383587571227

>  <r_i_docking_score>  (1) 
-5.0025978413055032

>  <r_i_glide_ecoul>  (1) 
-0.76676703267415647

>  <r_i_glide_eff_state_penalty>  (1) 
-0

>  <r_i_glide_einternal>  (1) 
0

>  <r_i_glide_emodel>  (1) 
-21.969118592779601

>  <r_i_glide_emodel_strain>  (1) 
6.5694472084487643e-10

>  <r_i_glide_energy>  (1) 
-16.749854530264059

>  <r_i_glide_erotb>  (1) 
0

>  <r_i_glide_esite>  (1) 
0

>  <r_i_glide_evdw>  (1) 
-15.983087497589901

>  <r_i_glide_gscore>  (1) 
-5.0025978413055032

>  <r_i_glide_gscore_strain>  (1) 
0

>  <r_i_glide_hbond>  (1) 
0

>  <r_i_glide_ligand_efficiency>  (1) 
-0.71465683447221473

>  <r_i_glide_ligand_efficiency_ln>  (1) 
-1.6981501770886402

>  <r_i_glide_ligand_efficiency_sa>  (1) 
-1.3670893436433054

>  <r_i_glide_lipo>  (1) 
-1.4553044954905618

>  <r_i_glide_metal>  (1) 
-0

>  <r_i_glide_rewards>  (1) 
-2.6331239160343229

>  <r_lp_Energy>  (1) 
7.3473319999999998

>  <r_lp_tautomer_probability>  (1) 
1

>  <s_epik_cmdline>  (1) 
J2VwaWtfcHl0aG9uJywgJy1waHQnLCAnMS4wJywgJy1waCcsICc3LjQnLCAnLXRuJywgJzgnLCAnLW1hJywgJzUwMCcsICctaW1hZScsICc8aW5maWxlLm1hZT4nLCAnLW9tYWUnLCAnPG91dGZpbGUubWFlPic=

>  <s_epik_input>  (1) 
W0NIXTE9W0NIXVtDSDJdT1tDSDJdW0NIMl1PMQ==

>  <s_glide_docking_method>  (1) 
confgen

>  <s_i_glide_gridfile>  (1) 
gpcr_drd2_6luq_protein_autoprepared_prepared

>  <s_lp_Force_Field>  (1) 
S-OPLS

>  <s_lp_Variant>  (1) 
Pocket2Mol_17-1

>  <s_m_source_file>  (1) 
generated_generic_title2_ligand_Pocket2Mol_2026-06-23_prepared.sdf

>  <GenAI_Model>  (1) 
Pocket2Mol

>  <Protein>  (1) 
generic_title2

$$$$
Pocket2Mol_33
     RDKit          3D

  0  0  0  0  0  0  0  0  0  0999 V3000
M  V30 BEGIN CTAB
M  V30 COUNTS 21 22 0 0 1
M  V30 BEGIN ATOM
M  V30 1 C 12.337900 8.405281 -9.322576 0
M  V30 2 O 12.575447 7.990227 -7.985025 0
M  V30 3 C 11.373619 8.139652 -7.236943 0 CFG=2
M  V30 4 C 11.493086 9.396016 -6.357704 0
M  V30 5 C 11.065502 6.889231 -6.423113 0
M  V30 6 C 10.923441 7.923676 -9.598644 0
M  V30 7 C 9.561451 6.752500 -6.605107 0
M  V30 8 C 10.234210 8.166017 -8.269572 0 CFG=1
M  V30 9 O 9.382125 7.072688 -7.967236 0
M  V30 10 H 13.073289 7.990227 -10.010524 0
M  V30 11 H 12.387036 9.492746 -9.385985 0
M  V30 12 H 10.557114 9.616171 -5.845619 0
M  V30 13 H 12.262838 9.264383 -5.597274 0
M  V30 14 H 11.775409 10.268976 -6.944943 0
M  V30 15 H 11.363794 6.955827 -5.376521 0
M  V30 16 H 11.562346 6.021065 -6.858437 0
M  V30 17 H 10.940771 6.856196 -9.821178 0
M  V30 18 H 10.441172 8.432973 -10.432117 0
M  V30 19 H 9.020862 7.468891 -5.985025 0
M  V30 20 H 9.190994 5.754259 -6.385026 0
M  V30 21 H 9.680262 9.104741 -8.251253 0
M  V30 END ATOM
M  V30 BEGIN BOND
M  V30 1 1 2 1
M  V30 2 1 3 2
M  V30 3 1 3 4 CFG=1
M  V30 4 1 5 3
M  V30 5 1 6 1
M  V30 6 1 7 5
M  V30 7 1 8 3
M  V30 8 1 8 6
M  V30 9 1 9 7
M  V30 10 1 9 8
M  V30 11 1 10 1
M  V30 12 1 11 1
M  V30 13 1 12 4
M  V30 14 1 13 4
M  V30 15 1 14 4
M  V30 16 1 15 5
M  V30 17 1 16 5
M  V30 18 1 17 6
M  V30 19 1 18 6
M  V30 20 1 19 7
M  V30 21 1 20 7
M  V30 22 1 8 21 CFG=3
M  V30 END BOND
M  V30 END CTAB
M  END
>  <i_epik_Tot_Q>  (1) 
0

>  <i_epik_Tot_abs_Q>  (1) 
0

>  <i_i_glide_confnum>  (1) 
4

>  <i_i_glide_lignum>  (1) 
37

>  <i_i_glide_posenum>  (1) 
335

>  <i_i_glide_rotatable_bonds>  (1) 
0

>  <i_lp_mmshare_version>  (1) 
72125

>  <i_m_source_file_index>  (1) 
34

>  <i_f3d_flags>  (1) 
0

>  <num_sample>  (1) 
50

>  <b_lp_Chiralities_Consistent>  (1) 
1

>  <r_epik_Charging_Adjusted_Penalty>  (1) 
0

>  <r_epik_Ionization_Penalty>  (1) 
2.529470820146915e-12

>  <r_epik_Ionization_Penalty_Charging>  (1) 
0

>  <r_epik_Ionization_Penalty_Neutral>  (1) 
2.529470820146915e-12

>  <r_epik_State_Penalty>  (1) 
-0

>  <r_glide_ring_energy>  (1) 
0.71124509259843272

>  <r_i_docking_score>  (1) 
-4.9966282675534526

>  <r_i_glide_ecoul>  (1) 
0.68848313802957151

>  <r_i_glide_eff_state_penalty>  (1) 
-0

>  <r_i_glide_einternal>  (1) 
0

>  <r_i_glide_emodel>  (1) 
-23.681088175573393

>  <r_i_glide_emodel_strain>  (1) 
0

>  <r_i_glide_energy>  (1) 
-18.05138346019266

>  <r_i_glide_erotb>  (1) 
0

>  <r_i_glide_esite>  (1) 
0

>  <r_i_glide_evdw>  (1) 
-18.739866598222232

>  <r_i_glide_gscore>  (1) 
-4.9966282675534526

>  <r_i_glide_gscore_strain>  (1) 
0

>  <r_i_glide_hbond>  (1) 
0

>  <r_i_glide_ligand_efficiency>  (1) 
-0.55518091861705032

>  <r_i_glide_ligand_efficiency_ln>  (1) 
-1.5628017821996143

>  <r_i_glide_ligand_efficiency_sa>  (1) 
-1.1548228476824223

>  <r_i_glide_lipo>  (1) 
-1.2045740750134435

>  <r_i_glide_metal>  (1) 
-0

>  <r_i_glide_rewards>  (1) 
-2.9583333333333335

>  <r_lp_Energy>  (1) 
-0.369228

>  <r_lp_tautomer_probability>  (1) 
1

>  <s_epik_cmdline>  (1) 
J2VwaWtfcHl0aG9uJywgJy1waHQnLCAnMS4wJywgJy1waCcsICc3LjQnLCAnLXRuJywgJzgnLCAnLW1hJywgJzUwMCcsICctaW1hZScsICc8aW5maWxlLm1hZT4nLCAnLW9tYWUnLCAnPG91dGZpbGUubWFlPic=

>  <s_epik_input>  (1) 
TzFbQ0gyXVtDSDJdW0NASF0oW0NAXTEyW0NIM10pT1tDSDJdW0NIMl0y

>  <s_glide_docking_method>  (1) 
confgen

>  <s_i_glide_gridfile>  (1) 
gpcr_drd2_6luq_protein_autoprepared_prepared

>  <s_lp_Force_Field>  (1) 
S-OPLS

>  <s_lp_Variant>  (1) 
Pocket2Mol_33-1

>  <s_m_source_file>  (1) 
generated_generic_title2_ligand_Pocket2Mol_2026-06-23_prepared.sdf

>  <GenAI_Model>  (1) 
Pocket2Mol

>  <Protein>  (1) 
generic_title2

$$$$
Pocket2Mol_17
     RDKit          3D

  0  0  0  0  0  0  0  0  0  0999 V3000
M  V30 BEGIN CTAB
M  V30 COUNTS 15 15 0 0 1
M  V30 BEGIN ATOM
M  V30 1 C 12.575409 8.359465 -3.355517 0
M  V30 2 O 12.816974 9.240999 -4.377739 0
M  V30 3 C 11.677177 9.669287 -5.106724 0
M  V30 4 C 11.279207 8.660021 -6.178713 0
M  V30 5 O 10.571580 7.596827 -5.577290 0
M  V30 6 C 11.375399 6.679798 -4.851911 0
M  V30 7 C 11.917559 7.192056 -3.523824 0
M  V30 8 H 12.966058 8.710136 -2.410558 0
M  V30 9 H 11.945146 10.607263 -5.592694 0
M  V30 10 H 10.840759 9.899959 -4.445583 0
M  V30 11 H 12.134956 8.315115 -6.760969 0
M  V30 12 H 10.595238 9.140212 -6.879193 0
M  V30 13 H 12.175406 6.274539 -5.470161 0
M  V30 14 H 10.727424 5.837608 -4.613251 0
M  V30 15 H 11.766664 6.547473 -2.669732 0
M  V30 END ATOM
M  V30 BEGIN BOND
M  V30 1 1 2 1
M  V30 2 1 3 2
M  V30 3 1 4 3
M  V30 4 1 5 4
M  V30 5 1 6 5
M  V30 6 2 7 1
M  V30 7 1 7 6
M  V30 8 1 8 1
M  V30 9 1 9 3
M  V30 10 1 10 3
M  V30 11 1 11 4
M  V30 12 1 12 4
M  V30 13 1 13 6
M  V30 14 1 14 6
M  V30 15 1 15 7
M  V30 END BOND
M  V30 END CTAB
M  END
>  <i_epik_Tot_Q>  (1) 
0

>  <i_epik_Tot_abs_Q>  (1) 
0

>  <i_i_glide_confnum>  (1) 
1

>  <i_i_glide_lignum>  (1) 
20

>  <i_i_glide_posenum>  (1) 
162

>  <i_i_glide_rotatable_bonds>  (1) 
0

>  <i_lp_mmshare_version>  (1) 
72125

>  <i_m_source_file_index>  (1) 
18

>  <i_f3d_flags>  (1) 
0

>  <num_sample>  (1) 
50

>  <b_lp_Chiralities_Consistent>  (1) 
1

>  <r_epik_Charging_Adjusted_Penalty>  (1) 
0

>  <r_epik_Ionization_Penalty>  (1) 
5.6701613537443791e-14

>  <r_epik_Ionization_Penalty_Charging>  (1) 
0

>  <r_epik_Ionization_Penalty_Neutral>  (1) 
5.6701613537443791e-14

>  <r_epik_State_Penalty>  (1) 
-0

>  <r_glide_ring_energy>  (1) 
0

>  <r_i_docking_score>  (1) 
-4.9916885345660189

>  <r_i_glide_ecoul>  (1) 
-0.33052283219542261

>  <r_i_glide_eff_state_penalty>  (1) 
-0

>  <r_i_glide_einternal>  (1) 
0

>  <r_i_glide_emodel>  (1) 
-21.179361922246102

>  <r_i_glide_emodel_strain>  (1) 
3.2868916477468701e-08

>  <r_i_glide_energy>  (1) 
-15.97147968884601

>  <r_i_glide_erotb>  (1) 
0

>  <r_i_glide_esite>  (1) 
0

>  <r_i_glide_evdw>  (1) 
-15.640956856650588

>  <r_i_glide_gscore>  (1) 
-4.9916885345660189

>  <r_i_glide_gscore_strain>  (1) 
0

>  <r_i_glide_hbond>  (1) 
0

>  <r_i_glide_ligand_efficiency>  (1) 
-0.71309836208085986

>  <r_i_glide_ligand_efficiency_ln>  (1) 
-1.6944469729216758

>  <r_i_glide_ligand_efficiency_sa>  (1) 
-1.3641080932083927

>  <r_i_glide_lipo>  (1) 
-1.5466082169737518

>  <r_i_glide_metal>  (1) 
-0

>  <r_i_glide_rewards>  (1) 
-2.6134540499304237

>  <r_lp_Energy>  (1) 
7.3473319999999998

>  <r_lp_tautomer_probability>  (1) 
1

>  <s_epik_cmdline>  (1) 
J2VwaWtfcHl0aG9uJywgJy1waHQnLCAnMS4wJywgJy1waCcsICc3LjQnLCAnLXRuJywgJzgnLCAnLW1hJywgJzUwMCcsICctaW1hZScsICc8aW5maWxlLm1hZT4nLCAnLW9tYWUnLCAnPG91dGZpbGUubWFlPic=

>  <s_epik_input>  (1) 
W0NIXTE9W0NIXVtDSDJdT1tDSDJdW0NIMl1PMQ==

>  <s_glide_docking_method>  (1) 
confgen

>  <s_i_glide_gridfile>  (1) 
gpcr_drd2_6luq_protein_autoprepared_prepared

>  <s_lp_Force_Field>  (1) 
S-OPLS

>  <s_lp_Variant>  (1) 
Pocket2Mol_17-1

>  <s_m_source_file>  (1) 
generated_generic_title2_ligand_Pocket2Mol_2026-06-23_prepared.sdf

>  <GenAI_Model>  (1) 
Pocket2Mol

>  <Protein>  (1) 
generic_title2

$$$$
Pocket2Mol_34
     RDKit          3D

  0  0  0  0  0  0  0  0  0  0999 V3000
M  V30 BEGIN CTAB
M  V30 COUNTS 17 18 0 0 1
M  V30 BEGIN ATOM
M  V30 1 C 7.107561 5.274685 -15.982291 0
M  V30 2 O 8.270210 4.905868 -15.129645 0
M  V30 3 C 7.987893 5.484516 -13.933566 0
M  V30 4 C 6.852448 6.177096 -13.883640 0
M  V30 5 C 6.448104 6.829109 -12.678382 0
M  V30 6 N 7.252664 6.724453 -11.585271 0 CHG=1
M  V30 7 C 8.418369 6.028076 -11.605486 0
M  V30 8 C 8.825972 5.378187 -12.795290 0
M  V30 9 C 6.095253 6.197634 -15.146456 0
M  V30 10 H 6.608486 4.360262 -16.321541 0
M  V30 11 H 7.459419 5.791335 -16.883212 0
M  V30 12 H 5.534292 7.419088 -12.546923 0
M  V30 13 H 8.977292 6.014931 -10.681665 0
M  V30 14 H 9.756711 4.814238 -12.830593 0
M  V30 15 H 5.136754 5.718891 -15.082176 0
M  V30 16 H 6.048175 7.173693 -15.593804 0
M  V30 17 H 6.975383 7.202304 -10.687948 0
M  V30 END ATOM
M  V30 BEGIN BOND
M  V30 1 1 2 1
M  V30 2 1 3 2
M  V30 3 2 4 3
M  V30 4 1 5 4
M  V30 5 2 6 5
M  V30 6 1 7 6
M  V30 7 1 8 3
M  V30 8 2 8 7
M  V30 9 1 9 1
M  V30 10 1 9 4
M  V30 11 1 10 1
M  V30 12 1 11 1
M  V30 13 1 12 5
M  V30 14 1 13 7
M  V30 15 1 14 8
M  V30 16 1 15 9
M  V30 17 1 16 9
M  V30 18 1 17 6
M  V30 END BOND
M  V30 END CTAB
M  END
>  <i_epik_Tot_Q>  (1) 
1

>  <i_epik_Tot_abs_Q>  (1) 
1

>  <i_i_glide_confnum>  (1) 
1

>  <i_i_glide_lignum>  (1) 
38

>  <i_i_glide_posenum>  (1) 
211

>  <i_i_glide_rotatable_bonds>  (1) 
0

>  <i_lp_mmshare_version>  (1) 
72125

>  <i_m_source_file_index>  (1) 
35

>  <i_f3d_flags>  (1) 
0

>  <num_sample>  (1) 
50

>  <b_lp_Chiralities_Consistent>  (1) 
1

>  <r_epik_Charging_Adjusted_Penalty>  (1) 
0.75885481127580179

>  <r_epik_Ionization_Penalty>  (1) 
0.37942740563790117

>  <r_epik_Ionization_Penalty_Charging>  (1) 
0.37942740563790117

>  <r_epik_Ionization_Penalty_Neutral>  (1) 
0

>  <r_epik_State_Penalty>  (1) 
0.37942740563790056

>  <r_glide_ring_energy>  (1) 
0

>  <r_i_docking_score>  (1) 
-4.9889945782288061

>  <r_i_glide_ecoul>  (1) 
-9.6860497179540097

>  <r_i_glide_eff_state_penalty>  (1) 
0.37942740563790056

>  <r_i_glide_einternal>  (1) 
0

>  <r_i_glide_emodel>  (1) 
-30.045922233315977

>  <r_i_glide_emodel_strain>  (1) 
0

>  <r_i_glide_energy>  (1) 
-19.833526205106953

>  <r_i_glide_erotb>  (1) 
0

>  <r_i_glide_esite>  (1) 
-0.10000000000000001

>  <r_i_glide_evdw>  (1) 
-10.147476487152943

>  <r_i_glide_gscore>  (1) 
-5.3684219838667069

>  <r_i_glide_gscore_strain>  (1) 
0

>  <r_i_glide_hbond>  (1) 
-0.1388682153960486

>  <r_i_glide_ligand_efficiency>  (1) 
-0.55433273091431179

>  <r_i_glide_ligand_efficiency_ln>  (1) 
-1.5604141834745331

>  <r_i_glide_ligand_efficiency_sa>  (1) 
-1.1530585461630443

>  <r_i_glide_lipo>  (1) 
-0.67488694256853721

>  <r_i_glide_metal>  (1) 
-0

>  <r_i_glide_rewards>  (1) 
-2.4943855438513722

>  <r_lp_Energy>  (1) 
18.327531999999998

>  <s_epik_cmdline>  (1) 
J2VwaWtfcHl0aG9uJywgJy1waHQnLCAnMS4wJywgJy1waCcsICc3LjQnLCAnLXRuJywgJzgnLCAnLW1hJywgJzUwMCcsICctaW1hZScsICc8aW5maWxlLm1hZT4nLCAnLW9tYWUnLCAnPG91dGZpbGUubWFlPic=

>  <s_epik_input>  (1) 
TzFbQ0gyXVtDSDJdYyhjMTIpW2NIXW5bY0hdW2NIXTI=

>  <s_glide_docking_method>  (1) 
confgen

>  <s_i_glide_gridfile>  (1) 
gpcr_drd2_6luq_protein_autoprepared_prepared

>  <s_lp_Force_Field>  (1) 
S-OPLS

>  <s_lp_Variant>  (1) 
Pocket2Mol_34-1

>  <s_m_source_file>  (1) 
generated_generic_title2_ligand_Pocket2Mol_2026-06-23_prepared.sdf

>  <GenAI_Model>  (1) 
Pocket2Mol

>  <Protein>  (1) 
generic_title2

$$$$
Pocket2Mol_14
     RDKit          3D

  0  0  0  0  0  0  0  0  0  0999 V3000
M  V30 BEGIN CTAB
M  V30 COUNTS 17 17 0 0 1
M  V30 BEGIN ATOM
M  V30 1 C 11.288802 8.767118 -5.661463 0
M  V30 2 O 11.375409 9.386409 -4.385086 0
M  V30 3 C 10.840628 7.298324 -5.586440 0
M  V30 4 O 11.775409 6.483627 -4.890889 0
M  V30 5 C 12.489049 8.952333 -3.620115 0
M  V30 6 C 11.622696 6.477613 -3.479499 0
M  V30 7 C 12.175410 7.721689 -2.756480 0
M  V30 8 H 10.551214 9.323353 -6.240148 0
M  V30 9 H 12.227293 8.863525 -6.207472 0
M  V30 10 H 9.832376 7.202840 -5.184972 0
M  V30 11 H 10.783974 6.911797 -6.604198 0
M  V30 12 H 13.366792 8.790234 -4.246308 0
M  V30 13 H 12.755702 9.769227 -2.950868 0
M  V30 14 H 12.148071 5.601311 -3.099607 0
M  V30 15 H 10.575457 6.316067 -3.222205 0
M  V30 16 H 13.089811 7.440540 -2.238839 0
M  V30 17 H 11.477698 8.005928 -1.967879 0
M  V30 END ATOM
M  V30 BEGIN BOND
M  V30 1 1 2 1
M  V30 2 1 3 1
M  V30 3 1 4 3
M  V30 4 1 5 2
M  V30 5 1 6 4
M  V30 6 1 7 5
M  V30 7 1 7 6
M  V30 8 1 8 1
M  V30 9 1 9 1
M  V30 10 1 10 3
M  V30 11 1 11 3
M  V30 12 1 12 5
M  V30 13 1 13 5
M  V30 14 1 14 6
M  V30 15 1 15 6
M  V30 16 1 16 7
M  V30 17 1 17 7
M  V30 END BOND
M  V30 END CTAB
M  END
>  <i_epik_Tot_Q>  (1) 
0

>  <i_epik_Tot_abs_Q>  (1) 
0

>  <i_i_glide_confnum>  (1) 
11

>  <i_i_glide_lignum>  (1) 
17

>  <i_i_glide_posenum>  (1) 
274

>  <i_i_glide_rotatable_bonds>  (1) 
0

>  <i_lp_mmshare_version>  (1) 
72125

>  <i_m_source_file_index>  (1) 
15

>  <i_f3d_flags>  (1) 
0

>  <num_sample>  (1) 
50

>  <b_lp_Chiralities_Consistent>  (1) 
1

>  <r_epik_Charging_Adjusted_Penalty>  (1) 
0

>  <r_epik_Ionization_Penalty>  (1) 
3.933197540425548e-12

>  <r_epik_Ionization_Penalty_Charging>  (1) 
0

>  <r_epik_Ionization_Penalty_Neutral>  (1) 
3.933197540425548e-12

>  <r_epik_State_Penalty>  (1) 
-0

>  <r_glide_ring_energy>  (1) 
0.00070385905571176553

>  <r_i_docking_score>  (1) 
-4.9885621245016196

>  <r_i_glide_ecoul>  (1) 
-0.71843742342616657

>  <r_i_glide_eff_state_penalty>  (1) 
-0

>  <r_i_glide_einternal>  (1) 
0

>  <r_i_glide_emodel>  (1) 
-21.626848818214885

>  <r_i_glide_emodel_strain>  (1) 
0.049286777995106945

>  <r_i_glide_energy>  (1) 
-16.213837972863207

>  <r_i_glide_erotb>  (1) 
0

>  <r_i_glide_esite>  (1) 
0

>  <r_i_glide_evdw>  (1) 
-15.495400549437042

>  <r_i_glide_gscore>  (1) 
-4.9885621245016196

>  <r_i_glide_gscore_strain>  (1) 
0

>  <r_i_glide_hbond>  (1) 
0

>  <r_i_glide_ligand_efficiency>  (1) 
-0.71265173207165999

>  <r_i_glide_ligand_efficiency_ln>  (1) 
-1.6933857015636877

>  <r_i_glide_ligand_efficiency_sa>  (1) 
-1.3632537207366322

>  <r_i_glide_lipo>  (1) 
-1.4695369820184143

>  <r_i_glide_metal>  (1) 
-0

>  <r_i_glide_rewards>  (1) 
-2.636489501497429

>  <r_lp_Energy>  (1) 
9.641

>  <r_lp_tautomer_probability>  (1) 
1

>  <s_epik_cmdline>  (1) 
J2VwaWtfcHl0aG9uJywgJy1waHQnLCAnMS4wJywgJy1waCcsICc3LjQnLCAnLXRuJywgJzgnLCAnLW1hJywgJzUwMCcsICctaW1hZScsICc8aW5maWxlLm1hZT4nLCAnLW9tYWUnLCAnPG91dGZpbGUubWFlPic=

>  <s_epik_input>  (1) 
W0NIMl0xT1tDSDJdW0NIMl1bQ0gyXU9bQ0gyXTE=

>  <s_glide_docking_method>  (1) 
confgen

>  <s_i_glide_gridfile>  (1) 
gpcr_drd2_6luq_protein_autoprepared_prepared

>  <s_lp_Force_Field>  (1) 
S-OPLS

>  <s_lp_Variant>  (1) 
Pocket2Mol_14-1

>  <s_m_source_file>  (1) 
generated_generic_title2_ligand_Pocket2Mol_2026-06-23_prepared.sdf

>  <GenAI_Model>  (1) 
Pocket2Mol

>  <Protein>  (1) 
generic_title2

$$$$
Pocket2Mol_27
     RDKit          3D

  0  0  0  0  0  0  0  0  0  0999 V3000
M  V30 BEGIN CTAB
M  V30 COUNTS 13 13 0 0 1
M  V30 BEGIN ATOM
M  V30 1 N 11.375410 6.390231 -4.505578 0
M  V30 2 C 11.957217 7.338809 -3.684679 0
M  V30 3 C 11.991580 8.653791 -3.985025 0
M  V30 4 C 10.794485 6.795572 -5.696802 0
M  V30 5 O 12.552880 9.565610 -3.185025 0
M  V30 6 C 11.375677 9.130370 -5.259681 0
M  V30 7 O 11.375411 10.317242 -5.584956 0
M  V30 8 C 10.760660 8.079785 -6.113350 0
M  V30 9 H 12.382843 6.935683 -2.776921 0
M  V30 10 H 10.362935 5.990229 -6.272340 0
M  V30 11 H 12.884365 9.122830 -2.419443 0
M  V30 12 H 10.297677 8.362567 -7.047815 0
M  V30 13 H 11.365175 5.413286 -4.237617 0
M  V30 END ATOM
M  V30 BEGIN BOND
M  V30 1 1 2 1
M  V30 2 2 3 2
M  V30 3 1 4 1
M  V30 4 1 5 3
M  V30 5 1 6 3
M  V30 6 2 7 6
M  V30 7 2 8 4
M  V30 8 1 8 6
M  V30 9 1 9 2
M  V30 10 1 10 4
M  V30 11 1 11 5
M  V30 12 1 12 8
M  V30 13 1 13 1
M  V30 END BOND
M  V30 END CTAB
M  END
>  <i_epik_Tot_Q>  (1) 
0

>  <i_epik_Tot_abs_Q>  (1) 
0

>  <i_i_glide_confnum>  (1) 
1

>  <i_i_glide_lignum>  (1) 
31

>  <i_i_glide_posenum>  (1) 
246

>  <i_i_glide_rotatable_bonds>  (1) 
1

>  <i_lp_mmshare_version>  (1) 
72125

>  <i_m_source_file_index>  (1) 
28

>  <i_f3d_flags>  (1) 
0

>  <num_sample>  (1) 
50

>  <b_lp_Chiralities_Consistent>  (1) 
1

>  <r_epik_Charging_Adjusted_Penalty>  (1) 
0.000203171374695584

>  <r_epik_Ionization_Penalty>  (1) 
0.014901896624084464

>  <r_epik_Ionization_Penalty_Charging>  (1) 
0.000203171374695584

>  <r_epik_Ionization_Penalty_Neutral>  (1) 
0.01469872524938888

>  <r_epik_State_Penalty>  (1) 
-0

>  <r_glide_ring_energy>  (1) 
0

>  <r_i_docking_score>  (1) 
-4.9815530220161941

>  <r_i_glide_ecoul>  (1) 
-2.671687865295481

>  <r_i_glide_eff_state_penalty>  (1) 
-0

>  <r_i_glide_einternal>  (1) 
0.012875822151120264

>  <r_i_glide_emodel>  (1) 
-27.227568416782571

>  <r_i_glide_emodel_strain>  (1) 
0

>  <r_i_glide_energy>  (1) 
-20.023831059558628

>  <r_i_glide_erotb>  (1) 
0

>  <r_i_glide_esite>  (1) 
0

>  <r_i_glide_evdw>  (1) 
-17.352143194263146

>  <r_i_glide_gscore>  (1) 
-4.9815530220161941

>  <r_i_glide_gscore_strain>  (1) 
0

>  <r_i_glide_hbond>  (1) 
0

>  <r_i_glide_ligand_efficiency>  (1) 
-0.62269412775202426

>  <r_i_glide_ligand_efficiency_ln>  (1) 
-1.6176806588439916

>  <r_i_glide_ligand_efficiency_sa>  (1) 
-1.2453882555040487

>  <r_i_glide_lipo>  (1) 
-1.4631926825087147

>  <r_i_glide_metal>  (1) 
-0

>  <r_i_glide_rewards>  (1) 
-2.25

>  <r_lp_Energy>  (1) 
11.500328

>  <r_lp_tautomer_probability>  (1) 
1

>  <s_epik_cmdline>  (1) 
J2VwaWtfcHl0aG9uJywgJy1waHQnLCAnMS4wJywgJy1waCcsICc3LjQnLCAnLXRuJywgJzgnLCAnLW1hJywgJzUwMCcsICctaW1hZScsICc8aW5maWxlLm1hZT4nLCAnLW9tYWUnLCAnPG91dGZpbGUubWFlPic=

>  <s_epik_input>  (1) 
W09IXWMxW2NIXW5bY0hdW2NIXWMxW09IXQ==

>  <s_glide_docking_method>  (1) 
confgen

>  <s_i_glide_gridfile>  (1) 
gpcr_drd2_6luq_protein_autoprepared_prepared

>  <s_lp_Force_Field>  (1) 
S-OPLS

>  <s_lp_Variant>  (1) 
Pocket2Mol_27-1

>  <s_m_source_file>  (1) 
generated_generic_title2_ligand_Pocket2Mol_2026-06-23_prepared.sdf

>  <GenAI_Model>  (1) 
Pocket2Mol

>  <Protein>  (1) 
generic_title2

$$$$
Pocket2Mol_33
     RDKit          3D

  0  0  0  0  0  0  0  0  0  0999 V3000
M  V30 BEGIN CTAB
M  V30 COUNTS 21 22 0 0 1
M  V30 BEGIN ATOM
M  V30 1 C 11.409157 8.703532 -5.290855 0
M  V30 2 O 10.996793 9.190217 -6.557622 0
M  V30 3 C 11.096726 8.144390 -7.522462 0 CFG=2
M  V30 4 C 12.284294 8.390231 -8.466677 0
M  V30 5 C 9.775411 7.998553 -8.257830 0
M  V30 6 C 10.975411 7.242187 -5.301788 0
M  V30 7 C 9.637198 6.489985 -8.409141 0
M  V30 8 C 11.203278 6.831263 -6.741741 0 CFG=1
M  V30 9 O 10.146795 5.990232 -7.185030 0
M  V30 10 H 10.973610 9.276408 -4.473136 0
M  V30 11 H 12.492487 8.790231 -5.210655 0
M  V30 12 H 12.384431 7.590220 -9.199536 0
M  V30 13 H 12.157716 9.322823 -9.016712 0
M  V30 14 H 13.221901 8.457771 -7.915112 0
M  V30 15 H 9.731846 8.531700 -9.207877 0
M  V30 16 H 8.959845 8.367339 -7.634688 0
M  V30 17 H 9.911085 7.176652 -5.078900 0
M  V30 18 H 11.513272 6.620547 -4.585616 0
M  V30 19 H 10.244850 6.122645 -9.236270 0
M  V30 20 H 8.605893 6.174777 -8.571435 0
M  V30 21 H 12.175389 6.354348 -6.869238 0
M  V30 END ATOM
M  V30 BEGIN BOND
M  V30 1 1 2 1
M  V30 2 1 3 2
M  V30 3 1 3 4 CFG=3
M  V30 4 1 5 3
M  V30 5 1 6 1
M  V30 6 1 7 5
M  V30 7 1 8 3
M  V30 8 1 8 6
M  V30 9 1 9 7
M  V30 10 1 9 8
M  V30 11 1 10 1
M  V30 12 1 11 1
M  V30 13 1 12 4
M  V30 14 1 13 4
M  V30 15 1 14 4
M  V30 16 1 15 5
M  V30 17 1 16 5
M  V30 18 1 17 6
M  V30 19 1 18 6
M  V30 20 1 19 7
M  V30 21 1 20 7
M  V30 22 1 8 21 CFG=1
M  V30 END BOND
M  V30 END CTAB
M  END
>  <i_epik_Tot_Q>  (1) 
0

>  <i_epik_Tot_abs_Q>  (1) 
0

>  <i_i_glide_confnum>  (1) 
4

>  <i_i_glide_lignum>  (1) 
37

>  <i_i_glide_posenum>  (1) 
193

>  <i_i_glide_rotatable_bonds>  (1) 
0

>  <i_lp_mmshare_version>  (1) 
72125

>  <i_m_source_file_index>  (1) 
34

>  <i_f3d_flags>  (1) 
0

>  <num_sample>  (1) 
50

>  <b_lp_Chiralities_Consistent>  (1) 
1

>  <r_epik_Charging_Adjusted_Penalty>  (1) 
0

>  <r_epik_Ionization_Penalty>  (1) 
2.529470820146915e-12

>  <r_epik_Ionization_Penalty_Charging>  (1) 
0

>  <r_epik_Ionization_Penalty_Neutral>  (1) 
2.529470820146915e-12

>  <r_epik_State_Penalty>  (1) 
-0

>  <r_glide_ring_energy>  (1) 
0.71124509259843272

>  <r_i_docking_score>  (1) 
-4.9797310202532152

>  <r_i_glide_ecoul>  (1) 
-0.086686593560568681

>  <r_i_glide_eff_state_penalty>  (1) 
-0

>  <r_i_glide_einternal>  (1) 
0

>  <r_i_glide_emodel>  (1) 
-24.664177950117686

>  <r_i_glide_emodel_strain>  (1) 
0

>  <r_i_glide_energy>  (1) 
-19.05351137560103

>  <r_i_glide_erotb>  (1) 
0

>  <r_i_glide_esite>  (1) 
0

>  <r_i_glide_evdw>  (1) 
-18.966824782040462

>  <r_i_glide_gscore>  (1) 
-4.9797310202532152

>  <r_i_glide_gscore_strain>  (1) 
0

>  <r_i_glide_hbond>  (1) 
0

>  <r_i_glide_ligand_efficiency>  (1) 
-0.55330344669480169

>  <r_i_glide_ligand_efficiency_ln>  (1) 
-1.5575168086572442

>  <r_i_glide_ligand_efficiency_sa>  (1) 
-1.1509175487087187

>  <r_i_glide_lipo>  (1) 
-1.3133992709493232

>  <r_i_glide_metal>  (1) 
-0

>  <r_i_glide_rewards>  (1) 
-2.7049875211677836

>  <r_lp_Energy>  (1) 
-0.369228

>  <r_lp_tautomer_probability>  (1) 
1

>  <s_epik_cmdline>  (1) 
J2VwaWtfcHl0aG9uJywgJy1waHQnLCAnMS4wJywgJy1waCcsICc3LjQnLCAnLXRuJywgJzgnLCAnLW1hJywgJzUwMCcsICctaW1hZScsICc8aW5maWxlLm1hZT4nLCAnLW9tYWUnLCAnPG91dGZpbGUubWFlPic=

>  <s_epik_input>  (1) 
TzFbQ0gyXVtDSDJdW0NASF0oW0NAXTEyW0NIM10pT1tDSDJdW0NIMl0y

>  <s_glide_docking_method>  (1) 
confgen

>  <s_i_glide_gridfile>  (1) 
gpcr_drd2_6luq_protein_autoprepared_prepared

>  <s_lp_Force_Field>  (1) 
S-OPLS

>  <s_lp_Variant>  (1) 
Pocket2Mol_33-1

>  <s_m_source_file>  (1) 
generated_generic_title2_ligand_Pocket2Mol_2026-06-23_prepared.sdf

>  <GenAI_Model>  (1) 
Pocket2Mol

>  <Protein>  (1) 
generic_title2

$$$$
Pocket2Mol_17
     RDKit          3D

  0  0  0  0  0  0  0  0  0  0999 V3000
M  V30 BEGIN CTAB
M  V30 COUNTS 15 15 0 0 1
M  V30 BEGIN ATOM
M  V30 1 C 11.376541 6.791007 -4.441578 0
M  V30 2 O 10.573683 7.420058 -5.357116 0
M  V30 3 C 11.201586 8.333504 -6.244357 0
M  V30 4 C 11.469899 9.685637 -5.585042 0
M  V30 5 O 12.580751 9.590227 -4.713497 0
M  V30 6 C 12.278587 8.963252 -3.479779 0
M  V30 7 C 12.175410 7.452944 -3.577578 0
M  V30 8 H 11.298106 5.715229 -4.498594 0
M  V30 9 H 10.507126 8.485570 -7.071110 0
M  V30 10 H 12.105093 7.915170 -6.690057 0
M  V30 11 H 10.583610 10.076042 -5.082075 0
M  V30 12 H 11.731236 10.408265 -6.358471 0
M  V30 13 H 11.378104 9.378774 -3.023778 0
M  V30 14 H 13.096936 9.189883 -2.796044 0
M  V30 15 H 12.781480 6.888389 -2.884268 0
M  V30 END ATOM
M  V30 BEGIN BOND
M  V30 1 1 2 1
M  V30 2 1 3 2
M  V30 3 1 4 3
M  V30 4 1 5 4
M  V30 5 1 6 5
M  V30 6 2 7 1
M  V30 7 1 7 6
M  V30 8 1 8 1
M  V30 9 1 9 3
M  V30 10 1 10 3
M  V30 11 1 11 4
M  V30 12 1 12 4
M  V30 13 1 13 6
M  V30 14 1 14 6
M  V30 15 1 15 7
M  V30 END BOND
M  V30 END CTAB
M  END
>  <i_epik_Tot_Q>  (1) 
0

>  <i_epik_Tot_abs_Q>  (1) 
0

>  <i_i_glide_confnum>  (1) 
1

>  <i_i_glide_lignum>  (1) 
20

>  <i_i_glide_posenum>  (1) 
388

>  <i_i_glide_rotatable_bonds>  (1) 
0

>  <i_lp_mmshare_version>  (1) 
72125

>  <i_m_source_file_index>  (1) 
18

>  <i_f3d_flags>  (1) 
0

>  <num_sample>  (1) 
50

>  <b_lp_Chiralities_Consistent>  (1) 
1

>  <r_epik_Charging_Adjusted_Penalty>  (1) 
0

>  <r_epik_Ionization_Penalty>  (1) 
5.6701613537443791e-14

>  <r_epik_Ionization_Penalty_Charging>  (1) 
0

>  <r_epik_Ionization_Penalty_Neutral>  (1) 
5.6701613537443791e-14

>  <r_epik_State_Penalty>  (1) 
-0

>  <r_glide_ring_energy>  (1) 
0

>  <r_i_docking_score>  (1) 
-4.9655391506959825

>  <r_i_glide_ecoul>  (1) 
-0.38313635295118953

>  <r_i_glide_eff_state_penalty>  (1) 
-0

>  <r_i_glide_einternal>  (1) 
0

>  <r_i_glide_emodel>  (1) 
-21.928624713571946

>  <r_i_glide_emodel_strain>  (1) 
0

>  <r_i_glide_energy>  (1) 
-16.74802438037781

>  <r_i_glide_erotb>  (1) 
0

>  <r_i_glide_esite>  (1) 
0

>  <r_i_glide_evdw>  (1) 
-16.36488802742662

>  <r_i_glide_gscore>  (1) 
-4.9655391506959825

>  <r_i_glide_gscore_strain>  (1) 
0

>  <r_i_glide_hbond>  (1) 
0

>  <r_i_glide_ligand_efficiency>  (1) 
-0.70936273581371179

>  <r_i_glide_ligand_efficiency_ln>  (1) 
-1.685570468701606

>  <r_i_glide_ligand_efficiency_sa>  (1) 
-1.3569620972347816

>  <r_i_glide_lipo>  (1) 
-1.5220457369669991

>  <r_i_glide_metal>  (1) 
-0

>  <r_i_glide_rewards>  (1) 
-2.5677785594149749

>  <r_lp_Energy>  (1) 
7.3473319999999998

>  <r_lp_tautomer_probability>  (1) 
1

>  <s_epik_cmdline>  (1) 
J2VwaWtfcHl0aG9uJywgJy1waHQnLCAnMS4wJywgJy1waCcsICc3LjQnLCAnLXRuJywgJzgnLCAnLW1hJywgJzUwMCcsICctaW1hZScsICc8aW5maWxlLm1hZT4nLCAnLW9tYWUnLCAnPG91dGZpbGUubWFlPic=

>  <s_epik_input>  (1) 
W0NIXTE9W0NIXVtDSDJdT1tDSDJdW0NIMl1PMQ==

>  <s_glide_docking_method>  (1) 
confgen

>  <s_i_glide_gridfile>  (1) 
gpcr_drd2_6luq_protein_autoprepared_prepared

>  <s_lp_Force_Field>  (1) 
S-OPLS

>  <s_lp_Variant>  (1) 
Pocket2Mol_17-1

>  <s_m_source_file>  (1) 
generated_generic_title2_ligand_Pocket2Mol_2026-06-23_prepared.sdf

>  <GenAI_Model>  (1) 
Pocket2Mol

>  <Protein>  (1) 
generic_title2

$$$$
Pocket2Mol_30
     RDKit          3D

  0  0  0  0  0  0  0  0  0  0999 V3000
M  V30 BEGIN CTAB
M  V30 COUNTS 20 21 0 0 1
M  V30 BEGIN ATOM
M  V30 1 C 12.167192 9.581690 -6.286802 0
M  V30 2 O 10.793103 9.389883 -5.962300 0
M  V30 3 C 10.338178 8.119957 -6.433984 0 CFG=2
M  V30 4 C 8.881604 8.191155 -6.824348 0
M  V30 5 C 10.849708 6.962678 -5.559390 0
M  V30 6 C 12.375353 8.790227 -7.580042 0
M  V30 7 C 11.512092 6.374679 -6.803546 0
M  V30 8 C 11.325519 7.720933 -7.523019 0 CFG=1
M  V30 9 H 12.396910 10.641988 -6.385022 0
M  V30 10 H 12.785410 9.190227 -5.479555 0
M  V30 11 H 8.575410 7.235335 -7.246580 0
M  V30 12 H 8.709721 8.953020 -7.585025 0
M  V30 13 H 8.229916 8.413214 -5.985025 0
M  V30 14 H 11.564763 7.265814 -4.794152 0
M  V30 15 H 10.061956 6.336691 -5.139685 0
M  V30 16 H 12.175410 9.427843 -8.442236 0
M  V30 17 H 13.380447 8.391642 -7.679335 0
M  V30 18 H 12.538492 6.034718 -6.677410 0
M  V30 19 H 10.903121 5.590226 -7.253999 0
M  V30 20 H 10.840971 7.563446 -8.488187 0
M  V30 END ATOM
M  V30 BEGIN BOND
M  V30 1 1 2 1
M  V30 2 1 3 2
M  V30 3 1 3 4 CFG=3
M  V30 4 1 5 3
M  V30 5 1 6 1
M  V30 6 1 7 5
M  V30 7 1 8 3
M  V30 8 1 8 6
M  V30 9 1 8 7
M  V30 10 1 9 1
M  V30 11 1 10 1
M  V30 12 1 11 4
M  V30 13 1 12 4
M  V30 14 1 13 4
M  V30 15 1 14 5
M  V30 16 1 15 5
M  V30 17 1 16 6
M  V30 18 1 17 6
M  V30 19 1 18 7
M  V30 20 1 19 7
M  V30 21 1 8 20 CFG=3
M  V30 END BOND
M  V30 END CTAB
M  END
>  <i_epik_Tot_Q>  (1) 
0

>  <i_epik_Tot_abs_Q>  (1) 
0

>  <i_i_glide_confnum>  (1) 
1

>  <i_i_glide_lignum>  (1) 
34

>  <i_i_glide_posenum>  (1) 
256

>  <i_i_glide_rotatable_bonds>  (1) 
0

>  <i_lp_mmshare_version>  (1) 
72125

>  <i_m_source_file_index>  (1) 
31

>  <i_f3d_flags>  (1) 
0

>  <num_sample>  (1) 
50

>  <b_lp_Chiralities_Consistent>  (1) 
1

>  <r_epik_Charging_Adjusted_Penalty>  (1) 
0

>  <r_epik_Ionization_Penalty>  (1) 
2.3587344998035955e-11

>  <r_epik_Ionization_Penalty_Charging>  (1) 
0

>  <r_epik_Ionization_Penalty_Neutral>  (1) 
2.3587344998035955e-11

>  <r_epik_State_Penalty>  (1) 
-0

>  <r_glide_ring_energy>  (1) 
0

>  <r_i_docking_score>  (1) 
-4.9564411424937687

>  <r_i_glide_ecoul>  (1) 
-0.84800464727213587

>  <r_i_glide_eff_state_penalty>  (1) 
-0

>  <r_i_glide_einternal>  (1) 
0

>  <r_i_glide_emodel>  (1) 
-19.37566639330749

>  <r_i_glide_emodel_strain>  (1) 
0

>  <r_i_glide_energy>  (1) 
-14.814171797138966

>  <r_i_glide_erotb>  (1) 
0

>  <r_i_glide_esite>  (1) 
0

>  <r_i_glide_evdw>  (1) 
-13.96616714986683

>  <r_i_glide_gscore>  (1) 
-4.9564411424937687

>  <r_i_glide_gscore_strain>  (1) 
0

>  <r_i_glide_hbond>  (1) 
0

>  <r_i_glide_ligand_efficiency>  (1) 
-0.61955514281172108

>  <r_i_glide_ligand_efficiency_ln>  (1) 
-1.6095259726184084

>  <r_i_glide_ligand_efficiency_sa>  (1) 
-1.2391102856234424

>  <r_i_glide_lipo>  (1) 
-1.424708584158904

>  <r_i_glide_metal>  (1) 
-0

>  <r_i_glide_rewards>  (1) 
-2.706223503750703

>  <r_lp_Energy>  (1) 
15.613807

>  <r_lp_tautomer_probability>  (1) 
1

>  <s_epik_cmdline>  (1) 
J2VwaWtfcHl0aG9uJywgJy1waHQnLCAnMS4wJywgJy1waCcsICc3LjQnLCAnLXRuJywgJzgnLCAnLW1hJywgJzUwMCcsICctaW1hZScsICc8aW5maWxlLm1hZT4nLCAnLW9tYWUnLCAnPG91dGZpbGUubWFlPic=

>  <s_epik_input>  (1) 
TzFbQ0gyXVtDSDJdW0NASF0oW0NAXTEyW0NIM10pW0NIMl1bQ0gyXTI=

>  <s_glide_docking_method>  (1) 
confgen

>  <s_i_glide_gridfile>  (1) 
gpcr_drd2_6luq_protein_autoprepared_prepared

>  <s_lp_Force_Field>  (1) 
S-OPLS

>  <s_lp_Variant>  (1) 
Pocket2Mol_30-1

>  <s_m_source_file>  (1) 
generated_generic_title2_ligand_Pocket2Mol_2026-06-23_prepared.sdf

>  <GenAI_Model>  (1) 
Pocket2Mol

>  <Protein>  (1) 
generic_title2

$$$$
Pocket2Mol_16
     RDKit          3D

  0  0  0  0  0  0  0  0  0  0999 V3000
M  V30 BEGIN CTAB
M  V30 COUNTS 12 12 0 0 1
M  V30 BEGIN ATOM
M  V30 1 N 11.556895 6.602204 -3.984912 0
M  V30 2 C 10.975417 6.855260 -5.214225 0
M  V30 3 C 10.975410 8.070062 -5.801780 0
M  V30 4 C 11.628641 9.209487 -5.102156 0
M  V30 5 O 11.657150 10.339178 -5.585029 0
M  V30 6 C 12.175413 7.637995 -3.307284 0
M  V30 7 C 12.244395 8.899827 -3.781025 0
M  V30 8 H 10.515690 5.990288 -5.670492 0
M  V30 9 H 10.511834 8.236489 -6.763375 0
M  V30 10 H 11.522530 5.673023 -3.583604 0
M  V30 11 H 12.601812 7.350719 -2.357067 0
M  V30 12 H 12.733690 9.687984 -3.228528 0
M  V30 END ATOM
M  V30 BEGIN BOND
M  V30 1 1 2 1
M  V30 2 2 3 2
M  V30 3 1 4 3
M  V30 4 2 5 4
M  V30 5 1 6 1
M  V30 6 1 7 4
M  V30 7 2 7 6
M  V30 8 1 8 2
M  V30 9 1 9 3
M  V30 10 1 10 1
M  V30 11 1 11 6
M  V30 12 1 12 7
M  V30 END BOND
M  V30 END CTAB
M  END
>  <i_epik_Tot_Q>  (1) 
0

>  <i_epik_Tot_abs_Q>  (1) 
0

>  <i_i_glide_confnum>  (1) 
1

>  <i_i_glide_lignum>  (1) 
19

>  <i_i_glide_posenum>  (1) 
37

>  <i_i_glide_rotatable_bonds>  (1) 
0

>  <i_lp_mmshare_version>  (1) 
72125

>  <i_m_source_file_index>  (1) 
17

>  <i_f3d_flags>  (1) 
0

>  <num_sample>  (1) 
50

>  <b_lp_Chiralities_Consistent>  (1) 
1

>  <r_epik_Charging_Adjusted_Penalty>  (1) 
0.00011828912318149299

>  <r_epik_Ionization_Penalty>  (1) 
0.00011828912318149299

>  <r_epik_Ionization_Penalty_Charging>  (1) 
0.00011828912318149299

>  <r_epik_Ionization_Penalty_Neutral>  (1) 
0

>  <r_epik_State_Penalty>  (1) 
-0

>  <r_glide_ring_energy>  (1) 
0

>  <r_i_docking_score>  (1) 
-4.9514243182964606

>  <r_i_glide_ecoul>  (1) 
-1.8266154947176356

>  <r_i_glide_eff_state_penalty>  (1) 
-0

>  <r_i_glide_einternal>  (1) 
0

>  <r_i_glide_emodel>  (1) 
-25.566612765330611

>  <r_i_glide_emodel_strain>  (1) 
1.4908785317402362e-10

>  <r_i_glide_energy>  (1) 
-19.418019043042218

>  <r_i_glide_erotb>  (1) 
0

>  <r_i_glide_esite>  (1) 
0

>  <r_i_glide_evdw>  (1) 
-17.591403548324582

>  <r_i_glide_gscore>  (1) 
-4.9514243182964606

>  <r_i_glide_gscore_strain>  (1) 
0

>  <r_i_glide_hbond>  (1) 
0

>  <r_i_glide_ligand_efficiency>  (1) 
-0.70734633118520862

>  <r_i_glide_ligand_efficiency_ln>  (1) 
-1.6807791370976708

>  <r_i_glide_ligand_efficiency_sa>  (1) 
-1.3531048539438313

>  <r_i_glide_lipo>  (1) 
-1.5478618166725859

>  <r_i_glide_metal>  (1) 
-0

>  <r_i_glide_rewards>  (1) 
-2.25

>  <r_lp_Energy>  (1) 
8.1847359999999991

>  <r_lp_tautomer_probability>  (1) 
1

>  <s_epik_cmdline>  (1) 
J2VwaWtfcHl0aG9uJywgJy1waHQnLCAnMS4wJywgJy1waCcsICc3LjQnLCAnLXRuJywgJzgnLCAnLW1hJywgJzUwMCcsICctaW1hZScsICc8aW5maWxlLm1hZT4nLCAnLW9tYWUnLCAnPG91dGZpbGUubWFlPic=

>  <s_epik_input>  (1) 
W2NIXTFbY0hdbltjSF1bY0hdYzFbT0hd

>  <s_glide_docking_method>  (1) 
confgen

>  <s_i_glide_gridfile>  (1) 
gpcr_drd2_6luq_protein_autoprepared_prepared

>  <s_lp_Force_Field>  (1) 
S-OPLS

>  <s_lp_Variant>  (1) 
Pocket2Mol_16-1

>  <s_m_source_file>  (1) 
generated_generic_title2_ligand_Pocket2Mol_2026-06-23_prepared.sdf

>  <GenAI_Model>  (1) 
Pocket2Mol

>  <Protein>  (1) 
generic_title2

$$$$
Pocket2Mol_17
     RDKit          3D

  0  0  0  0  0  0  0  0  0  0999 V3000
M  V30 BEGIN CTAB
M  V30 COUNTS 15 15 0 0 1
M  V30 BEGIN ATOM
M  V30 1 C 12.233353 8.700253 -3.409706 0
M  V30 2 O 11.375334 9.755865 -4.078284 0
M  V30 3 C 11.486894 9.757363 -5.611307 0
M  V30 4 C 10.745116 8.598314 -6.296006 0
M  V30 5 O 11.375410 7.215566 -6.065403 0
M  V30 6 C 11.241147 6.696604 -4.624825 0
M  V30 7 C 12.175410 7.379238 -3.645708 0
M  V30 8 H 12.933627 9.062509 -2.671609 0
M  V30 9 H 12.533781 9.769926 -5.914570 0
M  V30 10 H 11.062476 10.691274 -5.979791 0
M  V30 11 H 10.733143 8.790509 -7.368861 0
M  V30 12 H 9.699560 8.589156 -5.988065 0
M  V30 13 H 11.474453 5.631988 -4.608671 0
M  V30 14 H 10.213950 6.787361 -4.271652 0
M  V30 15 H 12.831152 6.726185 -3.088999 0
M  V30 END ATOM
M  V30 BEGIN BOND
M  V30 1 1 2 1
M  V30 2 1 3 2
M  V30 3 1 4 3
M  V30 4 1 5 4
M  V30 5 1 6 5
M  V30 6 2 7 1
M  V30 7 1 7 6
M  V30 8 1 8 1
M  V30 9 1 9 3
M  V30 10 1 10 3
M  V30 11 1 11 4
M  V30 12 1 12 4
M  V30 13 1 13 6
M  V30 14 1 14 6
M  V30 15 1 15 7
M  V30 END BOND
M  V30 END CTAB
M  END
>  <i_epik_Tot_Q>  (1) 
0

>  <i_epik_Tot_abs_Q>  (1) 
0

>  <i_i_glide_confnum>  (1) 
2

>  <i_i_glide_lignum>  (1) 
20

>  <i_i_glide_posenum>  (1) 
277

>  <i_i_glide_rotatable_bonds>  (1) 
0

>  <i_lp_mmshare_version>  (1) 
72125

>  <i_m_source_file_index>  (1) 
18

>  <i_f3d_flags>  (1) 
0

>  <num_sample>  (1) 
50

>  <b_lp_Chiralities_Consistent>  (1) 
1

>  <r_epik_Charging_Adjusted_Penalty>  (1) 
0

>  <r_epik_Ionization_Penalty>  (1) 
5.6701613537443791e-14

>  <r_epik_Ionization_Penalty_Charging>  (1) 
0

>  <r_epik_Ionization_Penalty_Neutral>  (1) 
5.6701613537443791e-14

>  <r_epik_State_Penalty>  (1) 
-0

>  <r_glide_ring_energy>  (1) 
0.00079047383587571227

>  <r_i_docking_score>  (1) 
-4.9410308494317219

>  <r_i_glide_ecoul>  (1) 
-0.8194133676538411

>  <r_i_glide_eff_state_penalty>  (1) 
-0

>  <r_i_glide_einternal>  (1) 
0

>  <r_i_glide_emodel>  (1) 
-21.083355502962466

>  <r_i_glide_emodel_strain>  (1) 
0

>  <r_i_glide_energy>  (1) 
-15.928324943732926

>  <r_i_glide_erotb>  (1) 
0

>  <r_i_glide_esite>  (1) 
0

>  <r_i_glide_evdw>  (1) 
-15.108911576079086

>  <r_i_glide_gscore>  (1) 
-4.9410308494317219

>  <r_i_glide_gscore_strain>  (1) 
0

>  <r_i_glide_hbond>  (1) 
0

>  <r_i_glide_ligand_efficiency>  (1) 
-0.70586154991881744

>  <r_i_glide_ligand_efficiency_ln>  (1) 
-1.677251035988385

>  <r_i_glide_ligand_efficiency_sa>  (1) 
-1.3502645695597553

>  <r_i_glide_lipo>  (1) 
-1.5944514944601145

>  <r_i_glide_metal>  (1) 
-0

>  <r_i_glide_rewards>  (1) 
-2.4682217710195768

>  <r_lp_Energy>  (1) 
7.3473319999999998

>  <r_lp_tautomer_probability>  (1) 
1

>  <s_epik_cmdline>  (1) 
J2VwaWtfcHl0aG9uJywgJy1waHQnLCAnMS4wJywgJy1waCcsICc3LjQnLCAnLXRuJywgJzgnLCAnLW1hJywgJzUwMCcsICctaW1hZScsICc8aW5maWxlLm1hZT4nLCAnLW9tYWUnLCAnPG91dGZpbGUubWFlPic=

>  <s_epik_input>  (1) 
W0NIXTE9W0NIXVtDSDJdT1tDSDJdW0NIMl1PMQ==

>  <s_glide_docking_method>  (1) 
confgen

>  <s_i_glide_gridfile>  (1) 
gpcr_drd2_6luq_protein_autoprepared_prepared

>  <s_lp_Force_Field>  (1) 
S-OPLS

>  <s_lp_Variant>  (1) 
Pocket2Mol_17-1

>  <s_m_source_file>  (1) 
generated_generic_title2_ligand_Pocket2Mol_2026-06-23_prepared.sdf

>  <GenAI_Model>  (1) 
Pocket2Mol

>  <Protein>  (1) 
generic_title2

$$$$
Pocket2Mol_25
     RDKit          3D

  0  0  0  0  0  0  0  0  0  0999 V3000
M  V30 BEGIN CTAB
M  V30 COUNTS 15 15 0 0 1
M  V30 BEGIN ATOM
M  V30 1 C 9.960856 7.395014 -7.260991 0
M  V30 2 O 10.841242 8.464537 -6.904308 0
M  V30 3 C 12.079263 8.433788 -7.611131 0
M  V30 4 C 11.822771 8.699837 -9.107092 0 CFG=1
M  V30 5 O 12.975548 8.390228 -9.857657 0
M  V30 6 C 9.798982 7.285997 -8.765630 0
M  V30 7 C 10.649466 7.885830 -9.611907 0
M  V30 8 H 8.987167 7.574906 -6.805285 0
M  V30 9 H 10.333174 6.448824 -6.868303 0
M  V30 10 H 12.563798 7.468237 -7.466092 0
M  V30 11 H 12.751318 9.189427 -7.204373 0
M  V30 12 H 11.606809 9.754967 -9.274904 0
M  V30 13 H 13.534530 9.151719 -9.879628 0
M  V30 14 H 8.975084 6.693775 -9.135583 0
M  V30 15 H 10.511934 7.810775 -10.680482 0
M  V30 END ATOM
M  V30 BEGIN BOND
M  V30 1 1 2 1
M  V30 2 1 3 2
M  V30 3 1 4 3
M  V30 4 1 5 4
M  V30 5 1 6 1
M  V30 6 1 7 4
M  V30 7 2 7 6
M  V30 8 1 8 1
M  V30 9 1 9 1
M  V30 10 1 10 3
M  V30 11 1 11 3
M  V30 12 1 4 12 CFG=1
M  V30 13 1 13 5
M  V30 14 1 14 6
M  V30 15 1 15 7
M  V30 END BOND
M  V30 END CTAB
M  END
>  <i_epik_Tot_Q>  (1) 
0

>  <i_epik_Tot_abs_Q>  (1) 
0

>  <i_i_glide_confnum>  (1) 
1

>  <i_i_glide_lignum>  (1) 
29

>  <i_i_glide_posenum>  (1) 
211

>  <i_i_glide_rotatable_bonds>  (1) 
1

>  <i_lp_mmshare_version>  (1) 
72125

>  <i_m_source_file_index>  (1) 
26

>  <i_f3d_flags>  (1) 
0

>  <num_sample>  (1) 
50

>  <b_lp_Chiralities_Consistent>  (1) 
1

>  <r_epik_Charging_Adjusted_Penalty>  (1) 
0

>  <r_epik_Ionization_Penalty>  (1) 
7.567869706951744e-07

>  <r_epik_Ionization_Penalty_Charging>  (1) 
0

>  <r_epik_Ionization_Penalty_Neutral>  (1) 
7.567869706951744e-07

>  <r_epik_State_Penalty>  (1) 
-0

>  <r_glide_ring_energy>  (1) 
0

>  <r_i_docking_score>  (1) 
-4.9266567978040836

>  <r_i_glide_ecoul>  (1) 
-4.3612626078085439

>  <r_i_glide_eff_state_penalty>  (1) 
-0

>  <r_i_glide_einternal>  (1) 
0.66413700441328072

>  <r_i_glide_emodel>  (1) 
-24.918373495559329

>  <r_i_glide_emodel_strain>  (1) 
0.048528392947127852

>  <r_i_glide_energy>  (1) 
-19.07773853255706

>  <r_i_glide_erotb>  (1) 
0

>  <r_i_glide_esite>  (1) 
0

>  <r_i_glide_evdw>  (1) 
-14.716475924748515

>  <r_i_glide_gscore>  (1) 
-4.9266567978040836

>  <r_i_glide_gscore_strain>  (1) 
0

>  <r_i_glide_hbond>  (1) 
-0.32000000000000001

>  <r_i_glide_ligand_efficiency>  (1) 
-0.70380811397201193

>  <r_i_glide_ligand_efficiency_ln>  (1) 
-1.6723717114671508

>  <r_i_glide_ligand_efficiency_sa>  (1) 
-1.3463364879052853

>  <r_i_glide_lipo>  (1) 
-0.58331027706204275

>  <r_i_glide_metal>  (1) 
-0

>  <r_i_glide_rewards>  (1) 
-2.6333333333333333

>  <r_lp_Energy>  (1) 
2.4739009999999997

>  <r_lp_tautomer_probability>  (1) 
1

>  <s_epik_cmdline>  (1) 
J2VwaWtfcHl0aG9uJywgJy1waHQnLCAnMS4wJywgJy1waCcsICc3LjQnLCAnLXRuJywgJzgnLCAnLW1hJywgJzUwMCcsICctaW1hZScsICc8aW5maWxlLm1hZT4nLCAnLW9tYWUnLCAnPG91dGZpbGUubWFlPic=

>  <s_epik_input>  (1) 
W0NIXTE9W0NIXVtDSDJdT1tDSDJdW0NASF0xW09IXQ==

>  <s_glide_docking_method>  (1) 
confgen

>  <s_i_glide_gridfile>  (1) 
gpcr_drd2_6luq_protein_autoprepared_prepared

>  <s_lp_Force_Field>  (1) 
S-OPLS

>  <s_lp_Variant>  (1) 
Pocket2Mol_25-1

>  <s_m_source_file>  (1) 
generated_generic_title2_ligand_Pocket2Mol_2026-06-23_prepared.sdf

>  <GenAI_Model>  (1) 
Pocket2Mol

>  <Protein>  (1) 
generic_title2

$$$$
Pocket2Mol_27
     RDKit          3D

  0  0  0  0  0  0  0  0  0  0999 V3000
M  V30 BEGIN CTAB
M  V30 COUNTS 13 13 0 0 1
M  V30 BEGIN ATOM
M  V30 1 N 11.775419 6.703121 -3.102418 0
M  V30 2 C 11.375410 6.676354 -4.425575 0
M  V30 3 C 11.352931 7.768203 -5.213955 0
M  V30 4 C 12.179272 7.905174 -2.547788 0
M  V30 5 O 10.962397 7.732686 -6.493631 0
M  V30 6 C 11.775410 9.078828 -4.657433 0
M  V30 7 O 11.770969 10.105244 -5.333724 0
M  V30 8 C 12.203045 9.070223 -3.230743 0
M  V30 9 H 11.077842 5.699229 -4.777225 0
M  V30 10 H 12.476632 7.834974 -1.512546 0
M  V30 11 H 11.002386 8.621530 -6.816650 0
M  V30 12 H 12.522988 9.990227 -2.769627 0
M  V30 13 H 11.767719 5.855872 -2.547698 0
M  V30 END ATOM
M  V30 BEGIN BOND
M  V30 1 1 2 1
M  V30 2 2 3 2
M  V30 3 1 4 1
M  V30 4 1 5 3
M  V30 5 1 6 3
M  V30 6 2 7 6
M  V30 7 2 8 4
M  V30 8 1 8 6
M  V30 9 1 9 2
M  V30 10 1 10 4
M  V30 11 1 11 5
M  V30 12 1 12 8
M  V30 13 1 13 1
M  V30 END BOND
M  V30 END CTAB
M  END
>  <i_epik_Tot_Q>  (1) 
0

>  <i_epik_Tot_abs_Q>  (1) 
0

>  <i_i_glide_confnum>  (1) 
1

>  <i_i_glide_lignum>  (1) 
31

>  <i_i_glide_posenum>  (1) 
292

>  <i_i_glide_rotatable_bonds>  (1) 
1

>  <i_lp_mmshare_version>  (1) 
72125

>  <i_m_source_file_index>  (1) 
28

>  <i_f3d_flags>  (1) 
0

>  <num_sample>  (1) 
50

>  <b_lp_Chiralities_Consistent>  (1) 
1

>  <r_epik_Charging_Adjusted_Penalty>  (1) 
0.000203171374695584

>  <r_epik_Ionization_Penalty>  (1) 
0.014901896624084464

>  <r_epik_Ionization_Penalty_Charging>  (1) 
0.000203171374695584

>  <r_epik_Ionization_Penalty_Neutral>  (1) 
0.01469872524938888

>  <r_epik_State_Penalty>  (1) 
-0

>  <r_glide_ring_energy>  (1) 
0

>  <r_i_docking_score>  (1) 
-4.9197494073413282

>  <r_i_glide_ecoul>  (1) 
-1.4600874593477866

>  <r_i_glide_eff_state_penalty>  (1) 
-0

>  <r_i_glide_einternal>  (1) 
2.0439670803703343

>  <r_i_glide_emodel>  (1) 
-26.441634804566988

>  <r_i_glide_emodel_strain>  (1) 
0

>  <r_i_glide_energy>  (1) 
-20.342896082784378

>  <r_i_glide_erotb>  (1) 
0

>  <r_i_glide_esite>  (1) 
0

>  <r_i_glide_evdw>  (1) 
-18.882808623436592

>  <r_i_glide_gscore>  (1) 
-4.9197494073413282

>  <r_i_glide_gscore_strain>  (1) 
0

>  <r_i_glide_hbond>  (1) 
0

>  <r_i_glide_ligand_efficiency>  (1) 
-0.61496867591766602

>  <r_i_glide_ligand_efficiency_ln>  (1) 
-1.5976109111841117

>  <r_i_glide_ligand_efficiency_sa>  (1) 
-1.2299373518353323

>  <r_i_glide_lipo>  (1) 
-1.5065958572673299

>  <r_i_glide_metal>  (1) 
-0

>  <r_i_glide_rewards>  (1) 
-2.25

>  <r_lp_Energy>  (1) 
11.500328

>  <r_lp_tautomer_probability>  (1) 
1

>  <s_epik_cmdline>  (1) 
J2VwaWtfcHl0aG9uJywgJy1waHQnLCAnMS4wJywgJy1waCcsICc3LjQnLCAnLXRuJywgJzgnLCAnLW1hJywgJzUwMCcsICctaW1hZScsICc8aW5maWxlLm1hZT4nLCAnLW9tYWUnLCAnPG91dGZpbGUubWFlPic=

>  <s_epik_input>  (1) 
W09IXWMxW2NIXW5bY0hdW2NIXWMxW09IXQ==

>  <s_glide_docking_method>  (1) 
confgen

>  <s_i_glide_gridfile>  (1) 
gpcr_drd2_6luq_protein_autoprepared_prepared

>  <s_lp_Force_Field>  (1) 
S-OPLS

>  <s_lp_Variant>  (1) 
Pocket2Mol_27-1

>  <s_m_source_file>  (1) 
generated_generic_title2_ligand_Pocket2Mol_2026-06-23_prepared.sdf

>  <GenAI_Model>  (1) 
Pocket2Mol

>  <Protein>  (1) 
generic_title2

$$$$
Pocket2Mol_18
     RDKit          3D

  0  0  0  0  0  0  0  0  0  0999 V3000
M  V30 BEGIN CTAB
M  V30 COUNTS 14 14 0 0 1
M  V30 BEGIN ATOM
M  V30 1 N 9.379739 7.703590 -9.174392 0 CHG=1
M  V30 2 C 9.987986 7.986580 -8.001069 0
M  V30 3 C 11.388687 8.143962 -7.955927 0
M  V30 4 C 12.135107 8.002190 -9.145377 0
M  V30 5 N 13.519930 8.151742 -9.130664 0
M  V30 6 C 11.461540 7.706558 -10.349758 0
M  V30 7 C 10.059063 7.560376 -10.334453 0
M  V30 8 H 9.342092 8.078194 -7.139047 0
M  V30 9 H 11.878840 8.370101 -7.019742 0
M  V30 10 H 14.075416 8.055597 -9.969096 0
M  V30 11 H 14.023947 8.363789 -8.280769 0
M  V30 12 H 12.008458 7.592134 -11.274826 0
M  V30 13 H 9.466102 7.334612 -11.209824 0
M  V30 14 H 8.361043 7.593400 -9.185067 0
M  V30 END ATOM
M  V30 BEGIN BOND
M  V30 1 1 2 1
M  V30 2 2 3 2
M  V30 3 1 4 3
M  V30 4 1 5 4
M  V30 5 2 6 4
M  V30 6 2 7 1
M  V30 7 1 7 6
M  V30 8 1 8 2
M  V30 9 1 9 3
M  V30 10 1 10 5
M  V30 11 1 11 5
M  V30 12 1 12 6
M  V30 13 1 13 7
M  V30 14 1 14 1
M  V30 END BOND
M  V30 END CTAB
M  END
>  <i_epik_Tot_Q>  (1) 
1

>  <i_epik_Tot_abs_Q>  (1) 
1

>  <i_i_glide_confnum>  (1) 
1

>  <i_i_glide_lignum>  (1) 
21

>  <i_i_glide_posenum>  (1) 
319

>  <i_i_glide_rotatable_bonds>  (1) 
0

>  <i_lp_mmshare_version>  (1) 
72125

>  <i_m_source_file_index>  (1) 
19

>  <i_f3d_flags>  (1) 
0

>  <num_sample>  (1) 
50

>  <b_lp_Chiralities_Consistent>  (1) 
1

>  <r_epik_Charging_Adjusted_Penalty>  (1) 
0.023410508937706027

>  <r_epik_Ionization_Penalty>  (1) 
0.011711918016166721

>  <r_epik_Ionization_Penalty_Charging>  (1) 
0.011705254468853022

>  <r_epik_Ionization_Penalty_Neutral>  (1) 
6.6635473136990569e-06

>  <r_epik_State_Penalty>  (1) 
0.011705254468853005

>  <r_glide_ring_energy>  (1) 
0

>  <r_i_docking_score>  (1) 
-4.9189915930526995

>  <r_i_glide_ecoul>  (1) 
-8.5842229832915997

>  <r_i_glide_eff_state_penalty>  (1) 
0.011705254468853005

>  <r_i_glide_einternal>  (1) 
0

>  <r_i_glide_emodel>  (1) 
-26.892355976454581

>  <r_i_glide_emodel_strain>  (1) 
0

>  <r_i_glide_energy>  (1) 
-17.65111683590019

>  <r_i_glide_erotb>  (1) 
0

>  <r_i_glide_esite>  (1) 
-0.12963680609607781

>  <r_i_glide_evdw>  (1) 
-9.0668938526085885

>  <r_i_glide_gscore>  (1) 
-4.9306968475215527

>  <r_i_glide_gscore_strain>  (1) 
0

>  <r_i_glide_hbond>  (1) 
-0.16115252290238563

>  <r_i_glide_ligand_efficiency>  (1) 
-0.70271308472181426

>  <r_i_glide_ligand_efficiency_ln>  (1) 
-1.6697697296131413

>  <r_i_glide_ligand_efficiency_sa>  (1) 
-1.3442417723065343

>  <r_i_glide_lipo>  (1) 
-0.64892937839891907

>  <r_i_glide_metal>  (1) 
-0

>  <r_i_glide_rewards>  (1) 
-2.25

>  <r_lp_Energy>  (1) 
13.062742999999999

>  <r_lp_tautomer_probability>  (1) 
0.99999999993680011

>  <s_epik_cmdline>  (1) 
J2VwaWtfcHl0aG9uJywgJy1waHQnLCAnMS4wJywgJy1waCcsICc3LjQnLCAnLXRuJywgJzgnLCAnLW1hJywgJzUwMCcsICctaW1hZScsICc8aW5maWxlLm1hZT4nLCAnLW9tYWUnLCAnPG91dGZpbGUubWFlPic=

>  <s_epik_input>  (1) 
W2NIXTFbY0hdbltjSF1bY0hdYzFbTkgyXQ==

>  <s_glide_docking_method>  (1) 
confgen

>  <s_i_glide_gridfile>  (1) 
gpcr_drd2_6luq_protein_autoprepared_prepared

>  <s_lp_Force_Field>  (1) 
S-OPLS

>  <s_lp_Variant>  (1) 
Pocket2Mol_18-1

>  <s_m_source_file>  (1) 
generated_generic_title2_ligand_Pocket2Mol_2026-06-23_prepared.sdf

>  <GenAI_Model>  (1) 
Pocket2Mol

>  <Protein>  (1) 
generic_title2

$$$$
Pocket2Mol_17
     RDKit          3D

  0  0  0  0  0  0  0  0  0  0999 V3000
M  V30 BEGIN CTAB
M  V30 COUNTS 15 15 0 0 1
M  V30 BEGIN ATOM
M  V30 1 C 10.975409 6.903926 -5.184940 0
M  V30 2 O 11.775225 7.793217 -4.499189 0
M  V30 3 C 11.624534 9.181898 -4.753755 0
M  V30 4 C 12.362858 9.616135 -6.021435 0
M  V30 5 O 12.060224 8.824058 -7.158105 0
M  V30 6 C 10.715208 8.386788 -7.246051 0
M  V30 7 C 10.466474 7.138413 -6.417278 0
M  V30 8 H 10.789633 6.003406 -4.616904 0
M  V30 9 H 12.039960 9.721270 -3.901970 0
M  V30 10 H 10.576174 9.464650 -4.786525 0
M  V30 11 H 13.441826 9.587615 -5.865590 0
M  V30 12 H 12.110865 10.653069 -6.244314 0
M  V30 13 H 10.539808 8.112854 -8.286538 0
M  V30 14 H 9.994906 9.174171 -7.016539 0
M  V30 15 H 9.835754 6.388180 -6.872031 0
M  V30 END ATOM
M  V30 BEGIN BOND
M  V30 1 1 2 1
M  V30 2 1 3 2
M  V30 3 1 4 3
M  V30 4 1 5 4
M  V30 5 1 6 5
M  V30 6 2 7 1
M  V30 7 1 7 6
M  V30 8 1 8 1
M  V30 9 1 9 3
M  V30 10 1 10 3
M  V30 11 1 11 4
M  V30 12 1 12 4
M  V30 13 1 13 6
M  V30 14 1 14 6
M  V30 15 1 15 7
M  V30 END BOND
M  V30 END CTAB
M  END
>  <i_epik_Tot_Q>  (1) 
0

>  <i_epik_Tot_abs_Q>  (1) 
0

>  <i_i_glide_confnum>  (1) 
3

>  <i_i_glide_lignum>  (1) 
20

>  <i_i_glide_posenum>  (1) 
159

>  <i_i_glide_rotatable_bonds>  (1) 
0

>  <i_lp_mmshare_version>  (1) 
72125

>  <i_m_source_file_index>  (1) 
18

>  <i_f3d_flags>  (1) 
0

>  <num_sample>  (1) 
50

>  <b_lp_Chiralities_Consistent>  (1) 
1

>  <r_epik_Charging_Adjusted_Penalty>  (1) 
0

>  <r_epik_Ionization_Penalty>  (1) 
5.6701613537443791e-14

>  <r_epik_Ionization_Penalty_Charging>  (1) 
0

>  <r_epik_Ionization_Penalty_Neutral>  (1) 
5.6701613537443791e-14

>  <r_epik_State_Penalty>  (1) 
-0

>  <r_glide_ring_energy>  (1) 
0.9851884203704826

>  <r_i_docking_score>  (1) 
-4.9031839975501113

>  <r_i_glide_ecoul>  (1) 
-0.64264246008464121

>  <r_i_glide_eff_state_penalty>  (1) 
-0

>  <r_i_glide_einternal>  (1) 
0

>  <r_i_glide_emodel>  (1) 
-21.434524117421542

>  <r_i_glide_emodel_strain>  (1) 
0

>  <r_i_glide_energy>  (1) 
-16.318979585291544

>  <r_i_glide_erotb>  (1) 
0

>  <r_i_glide_esite>  (1) 
0

>  <r_i_glide_evdw>  (1) 
-15.676337125206903

>  <r_i_glide_gscore>  (1) 
-4.9031839975501113

>  <r_i_glide_gscore_strain>  (1) 
0

>  <r_i_glide_hbond>  (1) 
0

>  <r_i_glide_ligand_efficiency>  (1) 
-0.700454856792873

>  <r_i_glide_ligand_efficiency_ln>  (1) 
-1.6644037833680878

>  <r_i_glide_ligand_efficiency_sa>  (1) 
-1.339921937683455

>  <r_i_glide_lipo>  (1) 
-1.3979707722770702

>  <r_i_glide_metal>  (1) 
-0

>  <r_i_glide_rewards>  (1) 
-2.625

>  <r_lp_Energy>  (1) 
7.3473319999999998

>  <r_lp_tautomer_probability>  (1) 
1

>  <s_epik_cmdline>  (1) 
J2VwaWtfcHl0aG9uJywgJy1waHQnLCAnMS4wJywgJy1waCcsICc3LjQnLCAnLXRuJywgJzgnLCAnLW1hJywgJzUwMCcsICctaW1hZScsICc8aW5maWxlLm1hZT4nLCAnLW9tYWUnLCAnPG91dGZpbGUubWFlPic=

>  <s_epik_input>  (1) 
W0NIXTE9W0NIXVtDSDJdT1tDSDJdW0NIMl1PMQ==

>  <s_glide_docking_method>  (1) 
confgen

>  <s_i_glide_gridfile>  (1) 
gpcr_drd2_6luq_protein_autoprepared_prepared

>  <s_lp_Force_Field>  (1) 
S-OPLS

>  <s_lp_Variant>  (1) 
Pocket2Mol_17-1

>  <s_m_source_file>  (1) 
generated_generic_title2_ligand_Pocket2Mol_2026-06-23_prepared.sdf

>  <GenAI_Model>  (1) 
Pocket2Mol

>  <Protein>  (1) 
generic_title2

$$$$
Pocket2Mol_19
     RDKit          3D

  0  0  0  0  0  0  0  0  0  0999 V3000
M  V30 BEGIN CTAB
M  V30 COUNTS 12 12 0 0 1
M  V30 BEGIN ATOM
M  V30 1 N 9.375415 7.843948 -8.482512 0 CHG=1
M  V30 2 C 9.696726 8.026679 -7.183717 0
M  V30 3 C 11.015797 8.374600 -6.829476 0
M  V30 4 C 10.273274 7.978946 -9.483229 0
M  V30 5 O 11.351367 8.566107 -5.522331 0 CHG=-1
M  V30 6 C 11.985118 8.524568 -7.843876 0
M  V30 7 C 11.609872 8.324815 -9.190006 0
M  V30 8 H 8.894895 7.894101 -6.473973 0
M  V30 9 H 9.896916 7.809260 -10.482226 0
M  V30 10 H 8.395352 7.597510 -8.725352 0
M  V30 11 H 13.000080 8.790225 -7.593313 0
M  V30 12 H 12.335740 8.436915 -9.982915 0
M  V30 END ATOM
M  V30 BEGIN BOND
M  V30 1 1 2 1
M  V30 2 2 3 2
M  V30 3 2 4 1
M  V30 4 1 5 3
M  V30 5 1 6 3
M  V30 6 1 7 4
M  V30 7 2 7 6
M  V30 8 1 8 2
M  V30 9 1 9 4
M  V30 10 1 10 1
M  V30 11 1 11 6
M  V30 12 1 12 7
M  V30 END BOND
M  V30 END CTAB
M  END
>  <i_epik_Tot_Q>  (1) 
0

>  <i_epik_Tot_abs_Q>  (1) 
2

>  <i_i_glide_confnum>  (1) 
1

>  <i_i_glide_lignum>  (1) 
22

>  <i_i_glide_posenum>  (1) 
41

>  <i_i_glide_rotatable_bonds>  (1) 
0

>  <i_lp_mmshare_version>  (1) 
72125

>  <i_m_source_file_index>  (1) 
20

>  <i_f3d_flags>  (1) 
0

>  <num_sample>  (1) 
50

>  <b_lp_Chiralities_Consistent>  (1) 
1

>  <r_epik_Charging_Adjusted_Penalty>  (1) 
0.36510749842979956

>  <r_epik_Ionization_Penalty>  (1) 
0.025180683492302028

>  <r_epik_Ionization_Penalty_Charging>  (1) 
0.025180683492302028

>  <r_epik_Ionization_Penalty_Neutral>  (1) 
0

>  <r_epik_State_Penalty>  (1) 
0.33992681493749755

>  <r_glide_ring_energy>  (1) 
0

>  <r_i_docking_score>  (1) 
-4.9024842068721437

>  <r_i_glide_ecoul>  (1) 
-4.8909434055732923

>  <r_i_glide_eff_state_penalty>  (1) 
0.33992681493749755

>  <r_i_glide_einternal>  (1) 
0

>  <r_i_glide_emodel>  (1) 
-27.030323051951509

>  <r_i_glide_emodel_strain>  (1) 
0

>  <r_i_glide_energy>  (1) 
-17.181913127467944

>  <r_i_glide_erotb>  (1) 
0

>  <r_i_glide_esite>  (1) 
-0.10000000000000001

>  <r_i_glide_evdw>  (1) 
-12.290969721894649

>  <r_i_glide_gscore>  (1) 
-5.2424110218096409

>  <r_i_glide_gscore_strain>  (1) 
0

>  <r_i_glide_hbond>  (1) 
-0.20000000000000001

>  <r_i_glide_ligand_efficiency>  (1) 
-0.70035488669602053

>  <r_i_glide_ligand_efficiency_ln>  (1) 
-1.6641662368569725

>  <r_i_glide_ligand_efficiency_sa>  (1) 
-1.3397307017678413

>  <r_i_glide_lipo>  (1) 
-0.8142210248789139

>  <r_i_glide_metal>  (1) 
-0

>  <r_i_glide_rewards>  (1) 
-2.7800000000000002

>  <r_lp_Energy>  (1) 
9.275188

>  <r_lp_tautomer_probability>  (1) 
0.56342000000000003

>  <s_epik_cmdline>  (1) 
J2VwaWtfcHl0aG9uJywgJy1waHQnLCAnMS4wJywgJy1waCcsICc3LjQnLCAnLXRuJywgJzgnLCAnLW1hJywgJzUwMCcsICctaW1hZScsICc8aW5maWxlLm1hZT4nLCAnLW9tYWUnLCAnPG91dGZpbGUubWFlPic=

>  <s_epik_input>  (1) 
W2NIXTFbY0hdW2NIXW5bY0hdYzFbT0hd

>  <s_glide_docking_method>  (1) 
confgen

>  <s_i_glide_gridfile>  (1) 
gpcr_drd2_6luq_protein_autoprepared_prepared

>  <s_lp_Force_Field>  (1) 
S-OPLS

>  <s_lp_Variant>  (1) 
Pocket2Mol_19-1

>  <s_m_source_file>  (1) 
generated_generic_title2_ligand_Pocket2Mol_2026-06-23_prepared.sdf

>  <GenAI_Model>  (1) 
Pocket2Mol

>  <Protein>  (1) 
generic_title2

$$$$
Pocket2Mol_9
     RDKit          3D

  0  0  0  0  0  0  0  0  0  0999 V3000
M  V30 BEGIN CTAB
M  V30 COUNTS 12 12 0 0 1
M  V30 BEGIN ATOM
M  V30 1 O 12.467387 7.604346 -1.949774 0
M  V30 2 C 11.975458 6.650086 -2.785032 0
M  V30 3 C 12.575412 8.730944 -2.693700 0
M  V30 4 C 11.775405 7.144520 -4.046237 0
M  V30 5 C 11.245035 6.406538 -5.245087 0
M  V30 6 C 12.175408 8.508711 -3.974969 0
M  V30 7 H 11.825105 5.680644 -2.331462 0
M  V30 8 H 12.952858 9.590227 -2.167815 0
M  V30 9 H 11.145713 7.076083 -6.099865 0
M  V30 10 H 11.913884 5.591174 -5.522665 0
M  V30 11 H 10.262284 5.990250 -5.022276 0
M  V30 12 H 12.165908 9.240592 -4.769319 0
M  V30 END ATOM
M  V30 BEGIN BOND
M  V30 1 1 2 1
M  V30 2 1 3 1
M  V30 3 2 4 2
M  V30 4 1 5 4
M  V30 5 2 6 3
M  V30 6 1 6 4
M  V30 7 1 7 2
M  V30 8 1 8 3
M  V30 9 1 9 5
M  V30 10 1 10 5
M  V30 11 1 11 5
M  V30 12 1 12 6
M  V30 END BOND
M  V30 END CTAB
M  END
>  <i_epik_Tot_Q>  (1) 
0

>  <i_epik_Tot_abs_Q>  (1) 
0

>  <i_i_glide_confnum>  (1) 
1

>  <i_i_glide_lignum>  (1) 
12

>  <i_i_glide_posenum>  (1) 
378

>  <i_i_glide_rotatable_bonds>  (1) 
0

>  <i_lp_mmshare_version>  (1) 
72125

>  <i_m_source_file_index>  (1) 
10

>  <i_f3d_flags>  (1) 
0

>  <num_sample>  (1) 
50

>  <b_lp_Chiralities_Consistent>  (1) 
1

>  <r_epik_Charging_Adjusted_Penalty>  (1) 
0

>  <r_epik_Ionization_Penalty>  (1) 
0

>  <r_epik_Ionization_Penalty_Charging>  (1) 
0

>  <r_epik_Ionization_Penalty_Neutral>  (1) 
0

>  <r_epik_State_Penalty>  (1) 
-0

>  <r_glide_ring_energy>  (1) 
0

>  <r_i_docking_score>  (1) 
-4.8911353815340473

>  <r_i_glide_ecoul>  (1) 
-2.0375835104586764

>  <r_i_glide_eff_state_penalty>  (1) 
-0

>  <r_i_glide_einternal>  (1) 
0

>  <r_i_glide_emodel>  (1) 
-19.510057125545906

>  <r_i_glide_emodel_strain>  (1) 
0

>  <r_i_glide_energy>  (1) 
-14.959502483791796

>  <r_i_glide_erotb>  (1) 
0

>  <r_i_glide_esite>  (1) 
0

>  <r_i_glide_evdw>  (1) 
-12.921918973333121

>  <r_i_glide_gscore>  (1) 
-4.8911353815340473

>  <r_i_glide_gscore_strain>  (1) 
0

>  <r_i_glide_hbond>  (1) 
0

>  <r_i_glide_ligand_efficiency>  (1) 
-0.81518923025567458

>  <r_i_glide_ligand_efficiency_ln>  (1) 
-1.75199025397646

>  <r_i_glide_ligand_efficiency_sa>  (1) 
-1.4812971373525672

>  <r_i_glide_lipo>  (1) 
-1.4366684614044509

>  <r_i_glide_metal>  (1) 
-0

>  <r_i_glide_rewards>  (1) 
-2.5027334448941385

>  <r_lp_Energy>  (1) 
-1.206345

>  <r_lp_tautomer_probability>  (1) 
1

>  <s_epik_cmdline>  (1) 
J2VwaWtfcHl0aG9uJywgJy1waHQnLCAnMS4wJywgJy1waCcsICc3LjQnLCAnLXRuJywgJzgnLCAnLW1hJywgJzUwMCcsICctaW1hZScsICc8aW5maWxlLm1hZT4nLCAnLW9tYWUnLCAnPG91dGZpbGUubWFlPic=

>  <s_epik_input>  (1) 
W2NIXTFbY0hdb1tjSF1jMVtDSDNd

>  <s_glide_docking_method>  (1) 
confgen

>  <s_i_glide_gridfile>  (1) 
gpcr_drd2_6luq_protein_autoprepared_prepared

>  <s_lp_Force_Field>  (1) 
S-OPLS

>  <s_lp_Variant>  (1) 
Pocket2Mol_9-1

>  <s_m_source_file>  (1) 
generated_generic_title2_ligand_Pocket2Mol_2026-06-23_prepared.sdf

>  <GenAI_Model>  (1) 
Pocket2Mol

>  <Protein>  (1) 
generic_title2

$$$$
Pocket2Mol_23
     RDKit          3D

  0  0  0  0  0  0  0  0  0  0999 V3000
M  V30 BEGIN CTAB
M  V30 COUNTS 15 16 0 0 1
M  V30 BEGIN ATOM
M  V30 1 C 10.792192 6.867727 -6.172094 0
M  V30 2 O 10.563190 6.126149 -7.365039 0
M  V30 3 C 9.615753 6.820631 -8.166069 0 CFG=2
M  V30 4 C 10.229665 7.779251 -9.144047 0 CFG=1
M  V30 5 O 9.375419 8.078383 -10.235791 0
M  V30 6 C 10.600802 8.333227 -6.562539 0
M  V30 7 C 9.747707 8.277192 -7.792023 0 CFG=2
M  V30 8 H 10.036019 6.582616 -5.439543 0
M  V30 9 H 11.773261 6.659778 -5.744967 0
M  V30 10 H 8.629421 6.376659 -8.291124 0
M  V30 11 H 11.292123 7.736562 -9.374533 0
M  V30 12 H 8.443916 7.964427 -9.985021 0
M  V30 13 H 10.123144 8.904810 -5.766176 0
M  V30 14 H 11.547164 8.812571 -6.811261 0
M  V30 15 H 8.853371 8.897112 -7.779555 0
M  V30 END ATOM
M  V30 BEGIN BOND
M  V30 1 1 2 1
M  V30 2 1 3 2
M  V30 3 1 4 3
M  V30 4 1 5 4
M  V30 5 1 6 1
M  V30 6 1 7 3
M  V30 7 1 7 4
M  V30 8 1 7 6
M  V30 9 1 8 1
M  V30 10 1 9 1
M  V30 11 1 3 10 CFG=3
M  V30 12 1 4 11 CFG=3
M  V30 13 1 12 5
M  V30 14 1 13 6
M  V30 15 1 14 6
M  V30 16 1 7 15 CFG=3
M  V30 END BOND
M  V30 END CTAB
M  END
>  <i_epik_Tot_Q>  (1) 
0

>  <i_epik_Tot_abs_Q>  (1) 
0

>  <i_i_glide_confnum>  (1) 
2

>  <i_i_glide_lignum>  (1) 
27

>  <i_i_glide_posenum>  (1) 
338

>  <i_i_glide_rotatable_bonds>  (1) 
1

>  <i_lp_mmshare_version>  (1) 
72125

>  <i_m_source_file_index>  (1) 
24

>  <i_f3d_flags>  (1) 
0

>  <num_sample>  (1) 
50

>  <b_lp_Chiralities_Consistent>  (1) 
1

>  <r_epik_Charging_Adjusted_Penalty>  (1) 
0

>  <r_epik_Ionization_Penalty>  (1) 
4.3639151522347116e-08

>  <r_epik_Ionization_Penalty_Charging>  (1) 
0

>  <r_epik_Ionization_Penalty_Neutral>  (1) 
4.3639151522347116e-08

>  <r_epik_State_Penalty>  (1) 
-0

>  <r_glide_ring_energy>  (1) 
1.4390763670009823

>  <r_i_docking_score>  (1) 
-4.8687196980505139

>  <r_i_glide_ecoul>  (1) 
-5.9492188259511769

>  <r_i_glide_eff_state_penalty>  (1) 
-0

>  <r_i_glide_einternal>  (1) 
0.0012037178637906987

>  <r_i_glide_emodel>  (1) 
-25.438745402990833

>  <r_i_glide_emodel_strain>  (1) 
0

>  <r_i_glide_energy>  (1) 
-18.853451730756603

>  <r_i_glide_erotb>  (1) 
0

>  <r_i_glide_esite>  (1) 
0

>  <r_i_glide_evdw>  (1) 
-12.904232904805427

>  <r_i_glide_gscore>  (1) 
-4.8687196980505139

>  <r_i_glide_gscore_strain>  (1) 
0

>  <r_i_glide_hbond>  (1) 
-0.16

>  <r_i_glide_ligand_efficiency>  (1) 
-0.69553138543578774

>  <r_i_glide_ligand_efficiency_ln>  (1) 
-1.6527047505545278

>  <r_i_glide_ligand_efficiency_sa>  (1) 
-1.3305036757969999

>  <r_i_glide_lipo>  (1) 
-0.54612756285020259

>  <r_i_glide_metal>  (1) 
-0

>  <r_i_glide_rewards>  (1) 
-2.6249976660673635

>  <r_lp_Energy>  (1) 
3.2309049999999999

>  <r_lp_tautomer_probability>  (1) 
1

>  <s_epik_cmdline>  (1) 
J2VwaWtfcHl0aG9uJywgJy1waHQnLCAnMS4wJywgJy1waCcsICc3LjQnLCAnLXRuJywgJzgnLCAnLW1hJywgJzUwMCcsICctaW1hZScsICc8aW5maWxlLm1hZT4nLCAnLW9tYWUnLCAnPG91dGZpbGUubWFlPic=

>  <s_epik_input>  (1) 
TzFbQ0gyXVtDSDJdW0NIXShbQ0BIXTEyKVtDQEBIXTJbT0hd

>  <s_glide_docking_method>  (1) 
confgen

>  <s_i_glide_gridfile>  (1) 
gpcr_drd2_6luq_protein_autoprepared_prepared

>  <s_lp_Force_Field>  (1) 
S-OPLS

>  <s_lp_Variant>  (1) 
Pocket2Mol_23-1

>  <s_m_source_file>  (1) 
generated_generic_title2_ligand_Pocket2Mol_2026-06-23_prepared.sdf

>  <GenAI_Model>  (1) 
Pocket2Mol

>  <Protein>  (1) 
generic_title2

$$$$
Pocket2Mol_41
     RDKit          3D

  0  0  0  0  0  0  0  0  0  0999 V3000
M  V30 BEGIN CTAB
M  V30 COUNTS 23 24 0 0 1
M  V30 BEGIN ATOM
M  V30 1 C 10.801845 7.865591 -9.989902 0
M  V30 2 O 9.785050 7.948803 -9.008572 0
M  V30 3 C 10.343521 7.572455 -7.758579 0 CFG=2
M  V30 4 C 10.173225 6.057568 -7.568711 0
M  V30 5 C 9.695837 8.364448 -6.618241 0
M  V30 6 C 12.006436 8.474812 -9.283198 0
M  V30 7 C 10.856722 8.889850 -5.771781 0
M  V30 8 C 11.806060 8.045810 -7.831640 0 CFG=1
M  V30 9 C 11.956814 9.167227 -6.786557 0
M  V30 10 H 10.975954 6.822216 -10.250393 0
M  V30 11 H 10.523108 8.390577 -10.901194 0
M  V30 12 H 10.640804 5.727856 -6.641250 0
M  V30 13 H 9.116211 5.793120 -7.521435 0
M  V30 14 H 10.611762 5.486373 -8.383924 0
M  V30 15 H 9.129941 9.190226 -7.043342 0
M  V30 16 H 8.991537 7.773658 -6.032080 0
M  V30 17 H 12.953548 8.134050 -9.701595 0
M  V30 18 H 11.968978 9.559984 -9.387895 0
M  V30 19 H 10.584379 9.776238 -5.197677 0
M  V30 20 H 11.179689 8.119014 -5.070504 0
M  V30 21 H 12.470728 7.218076 -7.584851 0
M  V30 22 H 11.775411 10.146545 -7.223472 0
M  V30 23 H 12.949045 9.190227 -6.337026 0
M  V30 END ATOM
M  V30 BEGIN BOND
M  V30 1 1 2 1
M  V30 2 1 3 2
M  V30 3 1 3 4 CFG=1
M  V30 4 1 5 3
M  V30 5 1 6 1
M  V30 6 1 7 5
M  V30 7 1 8 3
M  V30 8 1 8 6
M  V30 9 1 9 7
M  V30 10 1 9 8
M  V30 11 1 10 1
M  V30 12 1 11 1
M  V30 13 1 12 4
M  V30 14 1 13 4
M  V30 15 1 14 4
M  V30 16 1 15 5
M  V30 17 1 16 5
M  V30 18 1 17 6
M  V30 19 1 18 6
M  V30 20 1 19 7
M  V30 21 1 20 7
M  V30 22 1 8 21 CFG=1
M  V30 23 1 22 9
M  V30 24 1 23 9
M  V30 END BOND
M  V30 END CTAB
M  END
>  <i_epik_Tot_Q>  (1) 
0

>  <i_epik_Tot_abs_Q>  (1) 
0

>  <i_i_glide_confnum>  (1) 
4

>  <i_i_glide_lignum>  (1) 
46

>  <i_i_glide_posenum>  (1) 
24

>  <i_i_glide_rotatable_bonds>  (1) 
0

>  <i_lp_mmshare_version>  (1) 
72125

>  <i_m_source_file_index>  (1) 
42

>  <i_f3d_flags>  (1) 
0

>  <num_sample>  (1) 
50

>  <b_lp_Chiralities_Consistent>  (1) 
1

>  <r_epik_Charging_Adjusted_Penalty>  (1) 
0

>  <r_epik_Ionization_Penalty>  (1) 
2.4347883345708157e-11

>  <r_epik_Ionization_Penalty_Charging>  (1) 
0

>  <r_epik_Ionization_Penalty_Neutral>  (1) 
2.4347883345708157e-11

>  <r_epik_State_Penalty>  (1) 
-0

>  <r_glide_ring_energy>  (1) 
1.4300080397860451

>  <r_i_docking_score>  (1) 
-4.8595791032057791

>  <r_i_glide_ecoul>  (1) 
1.2426103950194187

>  <r_i_glide_eff_state_penalty>  (1) 
-0

>  <r_i_glide_einternal>  (1) 
0

>  <r_i_glide_emodel>  (1) 
-23.323291187539667

>  <r_i_glide_emodel_strain>  (1) 
0

>  <r_i_glide_energy>  (1) 
-18.098875544488092

>  <r_i_glide_erotb>  (1) 
0

>  <r_i_glide_esite>  (1) 
0

>  <r_i_glide_evdw>  (1) 
-19.34148593950751

>  <r_i_glide_gscore>  (1) 
-4.8595791032057791

>  <r_i_glide_gscore_strain>  (1) 
0

>  <r_i_glide_hbond>  (1) 
0

>  <r_i_glide_ligand_efficiency>  (1) 
-0.53995323368953096

>  <r_i_glide_ligand_efficiency_ln>  (1) 
-1.5199367406510296

>  <r_i_glide_ligand_efficiency_sa>  (1) 
-1.1231479866021581

>  <r_i_glide_lipo>  (1) 
-1.1277402786042143

>  <r_i_glide_metal>  (1) 
-0

>  <r_i_glide_rewards>  (1) 
-2.9511560868791022

>  <r_lp_Energy>  (1) 
5.4699619999999998

>  <r_lp_tautomer_probability>  (1) 
1

>  <s_epik_cmdline>  (1) 
J2VwaWtfcHl0aG9uJywgJy1waHQnLCAnMS4wJywgJy1waCcsICc3LjQnLCAnLXRuJywgJzgnLCAnLW1hJywgJzUwMCcsICctaW1hZScsICc8aW5maWxlLm1hZT4nLCAnLW9tYWUnLCAnPG91dGZpbGUubWFlPic=

>  <s_epik_input>  (1) 
TzFbQ0gyXVtDSDJdW0NASF0oW0NAXTEyW0NIM10pW0NIMl1bQ0gyXVtDSDJdMg==

>  <s_glide_docking_method>  (1) 
confgen

>  <s_i_glide_gridfile>  (1) 
gpcr_drd2_6luq_protein_autoprepared_prepared

>  <s_lp_Force_Field>  (1) 
S-OPLS

>  <s_lp_Variant>  (1) 
Pocket2Mol_41-1

>  <s_m_source_file>  (1) 
generated_generic_title2_ligand_Pocket2Mol_2026-06-23_prepared.sdf

>  <GenAI_Model>  (1) 
Pocket2Mol

>  <Protein>  (1) 
generic_title2

$$$$
Pocket2Mol_35
     RDKit          3D

  0  0  0  0  0  0  0  0  0  0999 V3000
M  V30 BEGIN CTAB
M  V30 COUNTS 15 16 0 0 1
M  V30 BEGIN ATOM
M  V30 1 C 12.476035 8.593675 -2.159687 0
M  V30 2 O 12.204333 9.590193 -3.111341 0
M  V30 3 C 11.776195 8.936600 -4.221159 0
M  V30 4 C 11.775414 7.576709 -3.985050 0
M  V30 5 C 11.375046 6.657414 -4.968884 0
M  V30 6 C 10.968212 7.169900 -6.222150 0
M  V30 7 C 10.969014 8.566406 -6.464617 0
M  V30 8 C 11.376663 9.470902 -5.457370 0
M  V30 9 O 12.203038 7.334993 -2.719786 0
M  V30 10 H 11.848462 8.746583 -1.281072 0
M  V30 11 H 13.525462 8.643805 -1.867485 0
M  V30 12 H 11.378473 5.595415 -4.772954 0
M  V30 13 H 10.654145 6.490996 -7.001320 0
M  V30 14 H 10.655553 8.943280 -7.427094 0
M  V30 15 H 11.381311 10.536788 -5.630892 0
M  V30 END ATOM
M  V30 BEGIN BOND
M  V30 1 1 2 1
M  V30 2 1 3 2
M  V30 3 1 4 3
M  V30 4 2 5 4
M  V30 5 1 6 5
M  V30 6 2 7 6
M  V30 7 2 8 3
M  V30 8 1 8 7
M  V30 9 1 9 1
M  V30 10 1 9 4
M  V30 11 1 10 1
M  V30 12 1 11 1
M  V30 13 1 12 5
M  V30 14 1 13 6
M  V30 15 1 14 7
M  V30 16 1 15 8
M  V30 END BOND
M  V30 END CTAB
M  END
>  <i_epik_Tot_Q>  (1) 
0

>  <i_epik_Tot_abs_Q>  (1) 
0

>  <i_i_glide_confnum>  (1) 
1

>  <i_i_glide_lignum>  (1) 
40

>  <i_i_glide_posenum>  (1) 
24

>  <i_i_glide_rotatable_bonds>  (1) 
0

>  <i_lp_mmshare_version>  (1) 
72125

>  <i_m_source_file_index>  (1) 
36

>  <i_f3d_flags>  (1) 
0

>  <num_sample>  (1) 
50

>  <b_lp_Chiralities_Consistent>  (1) 
1

>  <r_epik_Charging_Adjusted_Penalty>  (1) 
0

>  <r_epik_Ionization_Penalty>  (1) 
0

>  <r_epik_Ionization_Penalty_Charging>  (1) 
0

>  <r_epik_Ionization_Penalty_Neutral>  (1) 
0

>  <r_epik_State_Penalty>  (1) 
-0

>  <r_glide_ring_energy>  (1) 
0

>  <r_i_docking_score>  (1) 
-4.8504913696928664

>  <r_i_glide_ecoul>  (1) 
-1.0078462382539117

>  <r_i_glide_eff_state_penalty>  (1) 
-0

>  <r_i_glide_einternal>  (1) 
0

>  <r_i_glide_emodel>  (1) 
-26.703087737052343

>  <r_i_glide_emodel_strain>  (1) 
0

>  <r_i_glide_energy>  (1) 
-20.448443847738549

>  <r_i_glide_erotb>  (1) 
0

>  <r_i_glide_esite>  (1) 
0

>  <r_i_glide_evdw>  (1) 
-19.440597609484637

>  <r_i_glide_gscore>  (1) 
-4.8504913696928664

>  <r_i_glide_gscore_strain>  (1) 
0

>  <r_i_glide_hbond>  (1) 
0

>  <r_i_glide_ligand_efficiency>  (1) 
-0.53894348552142957

>  <r_i_glide_ligand_efficiency_ln>  (1) 
-1.5170943586746954

>  <r_i_glide_ligand_efficiency_sa>  (1) 
-1.1210476257723341

>  <r_i_glide_lipo>  (1) 
-1.6272845534805471

>  <r_i_glide_metal>  (1) 
-0

>  <r_i_glide_rewards>  (1) 
-2.1000000000000001

>  <r_lp_Energy>  (1) 
19.342482

>  <r_lp_tautomer_probability>  (1) 
1

>  <s_epik_Chemistry_Notes>  (1) 
This compound contains an acetal/aminal-like group ( X-CH(R)-Y where X, Y are N, S, or O) that may be acid/base labile, releasing an aldehyde.

>  <s_epik_cmdline>  (1) 
J2VwaWtfcHl0aG9uJywgJy1waHQnLCAnMS4wJywgJy1waCcsICc3LjQnLCAnLXRuJywgJzgnLCAnLW1hJywgJzUwMCcsICctaW1hZScsICc8aW5maWxlLm1hZT4nLCAnLW9tYWUnLCAnPG91dGZpbGUubWFlPic=

>  <s_epik_input>  (1) 
TzFbQ0gyXU9jKGMxMilbY0hdW2NIXVtjSF1bY0hdMg==

>  <s_glide_docking_method>  (1) 
confgen

>  <s_i_glide_gridfile>  (1) 
gpcr_drd2_6luq_protein_autoprepared_prepared

>  <s_lp_Force_Field>  (1) 
S-OPLS

>  <s_lp_Variant>  (1) 
Pocket2Mol_35-1

>  <s_m_source_file>  (1) 
generated_generic_title2_ligand_Pocket2Mol_2026-06-23_prepared.sdf

>  <GenAI_Model>  (1) 
Pocket2Mol

>  <Protein>  (1) 
generic_title2

$$$$
Pocket2Mol_25
     RDKit          3D

  0  0  0  0  0  0  0  0  0  0999 V3000
M  V30 BEGIN CTAB
M  V30 COUNTS 15 15 0 0 1
M  V30 BEGIN ATOM
M  V30 1 C 10.379902 7.146888 -6.363879 0
M  V30 2 O 10.382413 5.988428 -7.204337 0
M  V30 3 C 9.610104 6.138283 -8.394442 0
M  V30 4 C 10.266893 7.205133 -9.308812 0 CFG=1
M  V30 5 O 9.375024 7.574369 -10.330244 0
M  V30 6 C 10.716596 8.385623 -7.159416 0
M  V30 7 C 10.674422 8.408450 -8.494018 0
M  V30 8 H 11.112887 7.004113 -5.574541 0
M  V30 9 H 9.404781 7.267174 -5.897857 0
M  V30 10 H 8.589105 6.425308 -8.132222 0
M  V30 11 H 9.544750 5.184024 -8.916797 0
M  V30 12 H 11.155926 6.792462 -9.776696 0
M  V30 13 H 8.473856 7.590258 -9.973068 0
M  V30 14 H 11.000627 9.273081 -6.600885 0
M  V30 15 H 10.928320 9.313469 -9.040598 0
M  V30 END ATOM
M  V30 BEGIN BOND
M  V30 1 1 2 1
M  V30 2 1 3 2
M  V30 3 1 4 3
M  V30 4 1 5 4
M  V30 5 1 6 1
M  V30 6 1 7 4
M  V30 7 2 7 6
M  V30 8 1 8 1
M  V30 9 1 9 1
M  V30 10 1 10 3
M  V30 11 1 11 3
M  V30 12 1 4 12 CFG=3
M  V30 13 1 13 5
M  V30 14 1 14 6
M  V30 15 1 15 7
M  V30 END BOND
M  V30 END CTAB
M  END
>  <i_epik_Tot_Q>  (1) 
0

>  <i_epik_Tot_abs_Q>  (1) 
0

>  <i_i_glide_confnum>  (1) 
1

>  <i_i_glide_lignum>  (1) 
29

>  <i_i_glide_posenum>  (1) 
159

>  <i_i_glide_rotatable_bonds>  (1) 
1

>  <i_lp_mmshare_version>  (1) 
72125

>  <i_m_source_file_index>  (1) 
26

>  <i_f3d_flags>  (1) 
0

>  <num_sample>  (1) 
50

>  <b_lp_Chiralities_Consistent>  (1) 
1

>  <r_epik_Charging_Adjusted_Penalty>  (1) 
0

>  <r_epik_Ionization_Penalty>  (1) 
7.567869706951744e-07

>  <r_epik_Ionization_Penalty_Charging>  (1) 
0

>  <r_epik_Ionization_Penalty_Neutral>  (1) 
7.567869706951744e-07

>  <r_epik_State_Penalty>  (1) 
-0

>  <r_glide_ring_energy>  (1) 
0

>  <r_i_docking_score>  (1) 
-4.8478302042724692

>  <r_i_glide_ecoul>  (1) 
-5.7399095459630649

>  <r_i_glide_eff_state_penalty>  (1) 
-0

>  <r_i_glide_einternal>  (1) 
0.2247416847633219

>  <r_i_glide_emodel>  (1) 
-24.608552911607255

>  <r_i_glide_emodel_strain>  (1) 
0.018431348535461023

>  <r_i_glide_energy>  (1) 
-18.617663061139702

>  <r_i_glide_erotb>  (1) 
0

>  <r_i_glide_esite>  (1) 
0

>  <r_i_glide_evdw>  (1) 
-12.877753515176636

>  <r_i_glide_gscore>  (1) 
-4.8478302042724692

>  <r_i_glide_gscore_strain>  (1) 
0

>  <r_i_glide_hbond>  (1) 
-0.16

>  <r_i_glide_ligand_efficiency>  (1) 
-0.69254717203892413

>  <r_i_glide_ligand_efficiency_ln>  (1) 
-1.6456137353092926

>  <r_i_glide_ligand_efficiency_sa>  (1) 
-1.3247950809340925

>  <r_i_glide_lipo>  (1) 
-0.45795609661917858

>  <r_i_glide_metal>  (1) 
-0

>  <r_i_glide_rewards>  (1) 
-2.7250000000000001

>  <r_lp_Energy>  (1) 
2.4739009999999997

>  <r_lp_tautomer_probability>  (1) 
1

>  <s_epik_cmdline>  (1) 
J2VwaWtfcHl0aG9uJywgJy1waHQnLCAnMS4wJywgJy1waCcsICc3LjQnLCAnLXRuJywgJzgnLCAnLW1hJywgJzUwMCcsICctaW1hZScsICc8aW5maWxlLm1hZT4nLCAnLW9tYWUnLCAnPG91dGZpbGUubWFlPic=

>  <s_epik_input>  (1) 
W0NIXTE9W0NIXVtDSDJdT1tDSDJdW0NASF0xW09IXQ==

>  <s_glide_docking_method>  (1) 
confgen

>  <s_i_glide_gridfile>  (1) 
gpcr_drd2_6luq_protein_autoprepared_prepared

>  <s_lp_Force_Field>  (1) 
S-OPLS

>  <s_lp_Variant>  (1) 
Pocket2Mol_25-1

>  <s_m_source_file>  (1) 
generated_generic_title2_ligand_Pocket2Mol_2026-06-23_prepared.sdf

>  <GenAI_Model>  (1) 
Pocket2Mol

>  <Protein>  (1) 
generic_title2

$$$$
Pocket2Mol_7
     RDKit          3D

  0  0  0  0  0  0  0  0  0  0999 V3000
M  V30 BEGIN CTAB
M  V30 COUNTS 13 13 0 0 1
M  V30 BEGIN ATOM
M  V30 1 N 12.574874 7.943612 -2.241416 0
M  V30 2 C 12.297927 8.800110 -3.266801 0
M  V30 3 C 11.775452 8.247679 -4.322320 0
M  V30 4 C 12.173596 6.830805 -2.784808 0
M  V30 5 C 11.375410 8.983941 -5.585024 0
M  V30 6 C 11.565086 6.790391 -4.243206 0
M  V30 7 H 12.517671 9.851389 -3.149816 0
M  V30 8 H 12.233469 5.869534 -2.267675 0
M  V30 9 H 10.309158 8.855458 -5.774239 0
M  V30 10 H 11.580480 10.051905 -5.500887 0
M  V30 11 H 11.923779 8.596501 -6.443708 0
M  V30 12 H 12.173441 6.214632 -4.939319 0
M  V30 13 H 10.518819 6.485293 -4.253817 0
M  V30 END ATOM
M  V30 BEGIN BOND
M  V30 1 1 2 1
M  V30 2 2 3 2
M  V30 3 2 4 1
M  V30 4 1 5 3
M  V30 5 1 6 3
M  V30 6 1 6 4
M  V30 7 1 7 2
M  V30 8 1 8 4
M  V30 9 1 9 5
M  V30 10 1 10 5
M  V30 11 1 11 5
M  V30 12 1 12 6
M  V30 13 1 13 6
M  V30 END BOND
M  V30 END CTAB
M  END
>  <i_epik_Tot_Q>  (1) 
0

>  <i_epik_Tot_abs_Q>  (1) 
0

>  <i_i_glide_confnum>  (1) 
1

>  <i_i_glide_lignum>  (1) 
8

>  <i_i_glide_posenum>  (1) 
233

>  <i_i_glide_rotatable_bonds>  (1) 
0

>  <i_lp_mmshare_version>  (1) 
72125

>  <i_m_source_file_index>  (1) 
8

>  <i_f3d_flags>  (1) 
0

>  <num_sample>  (1) 
50

>  <b_lp_Chiralities_Consistent>  (1) 
1

>  <r_epik_Charging_Adjusted_Penalty>  (1) 
0

>  <r_epik_Ionization_Penalty>  (1) 
0

>  <r_epik_Ionization_Penalty_Charging>  (1) 
0

>  <r_epik_Ionization_Penalty_Neutral>  (1) 
0

>  <r_epik_State_Penalty>  (1) 
-0

>  <r_glide_ring_energy>  (1) 
0

>  <r_i_docking_score>  (1) 
-4.8463431913016324

>  <r_i_glide_ecoul>  (1) 
-0.51397254452109964

>  <r_i_glide_eff_state_penalty>  (1) 
-0

>  <r_i_glide_einternal>  (1) 
0

>  <r_i_glide_emodel>  (1) 
-21.689579317993012

>  <r_i_glide_emodel_strain>  (1) 
0

>  <r_i_glide_energy>  (1) 
-16.330842469321425

>  <r_i_glide_erotb>  (1) 
0

>  <r_i_glide_esite>  (1) 
0

>  <r_i_glide_evdw>  (1) 
-15.816869924800326

>  <r_i_glide_gscore>  (1) 
-4.8463431913016324

>  <r_i_glide_gscore_strain>  (1) 
0

>  <r_i_glide_hbond>  (1) 
0

>  <r_i_glide_ligand_efficiency>  (1) 
-0.80772386521693873

>  <r_i_glide_ligand_efficiency_ln>  (1) 
-1.735945823671438

>  <r_i_glide_ligand_efficiency_sa>  (1) 
-1.4677316688076711

>  <r_i_glide_lipo>  (1) 
-1.033956116485474

>  <r_i_glide_metal>  (1) 
-0

>  <r_i_glide_rewards>  (1) 
-2.9444476968979769

>  <r_lp_Energy>  (1) 
-3.9959819999999997

>  <r_lp_tautomer_probability>  (1) 
1

>  <s_epik_Chemistry_Notes>  (1) 
This compound has an imine and may undergo hydrolysis.

>  <s_epik_cmdline>  (1) 
J2VwaWtfcHl0aG9uJywgJy1waHQnLCAnMS4wJywgJy1waCcsICc3LjQnLCAnLXRuJywgJzgnLCAnLW1hJywgJzUwMCcsICctaW1hZScsICc8aW5maWxlLm1hZT4nLCAnLW9tYWUnLCAnPG91dGZpbGUubWFlPic=

>  <s_epik_input>  (1) 
W0NIMl0xW0NIXT1OW0NIXT1DMVtDSDNd

>  <s_glide_docking_method>  (1) 
confgen

>  <s_i_glide_gridfile>  (1) 
gpcr_drd2_6luq_protein_autoprepared_prepared

>  <s_lp_Force_Field>  (1) 
S-OPLS

>  <s_lp_Variant>  (1) 
Pocket2Mol_7-1

>  <s_m_source_file>  (1) 
generated_generic_title2_ligand_Pocket2Mol_2026-06-23_prepared.sdf

>  <GenAI_Model>  (1) 
Pocket2Mol

>  <Protein>  (1) 
generic_title2

$$$$
Pocket2Mol_14
     RDKit          3D

  0  0  0  0  0  0  0  0  0  0999 V3000
M  V30 BEGIN CTAB
M  V30 COUNTS 17 17 0 0 1
M  V30 BEGIN ATOM
M  V30 1 C 10.729396 8.392930 -6.207159 0
M  V30 2 O 11.375410 7.163294 -5.924202 0
M  V30 3 C 11.706212 9.580909 -6.110078 0
M  V30 4 O 12.575433 9.590227 -4.983795 0
M  V30 5 C 11.353690 6.788737 -4.552015 0
M  V30 6 C 12.005917 9.190226 -3.751535 0
M  V30 7 C 12.175410 7.673042 -3.585009 0
M  V30 8 H 10.351019 8.342976 -7.228534 0
M  V30 9 H 9.847341 8.535103 -5.585026 0
M  V30 10 H 12.339561 9.590224 -6.996245 0
M  V30 11 H 11.142187 10.513437 -6.120044 0
M  V30 12 H 10.315202 6.710441 -4.238856 0
M  V30 13 H 11.741753 5.772526 -4.491117 0
M  V30 14 H 10.975411 9.530137 -3.650106 0
M  V30 15 H 12.567575 9.684551 -2.958641 0
M  V30 16 H 11.900169 7.400330 -2.565808 0
M  V30 17 H 13.234822 7.434883 -3.659364 0
M  V30 END ATOM
M  V30 BEGIN BOND
M  V30 1 1 2 1
M  V30 2 1 3 1
M  V30 3 1 4 3
M  V30 4 1 5 2
M  V30 5 1 6 4
M  V30 6 1 7 5
M  V30 7 1 7 6
M  V30 8 1 8 1
M  V30 9 1 9 1
M  V30 10 1 10 3
M  V30 11 1 11 3
M  V30 12 1 12 5
M  V30 13 1 13 5
M  V30 14 1 14 6
M  V30 15 1 15 6
M  V30 16 1 16 7
M  V30 17 1 17 7
M  V30 END BOND
M  V30 END CTAB
M  END
>  <i_epik_Tot_Q>  (1) 
0

>  <i_epik_Tot_abs_Q>  (1) 
0

>  <i_i_glide_confnum>  (1) 
2

>  <i_i_glide_lignum>  (1) 
17

>  <i_i_glide_posenum>  (1) 
140

>  <i_i_glide_rotatable_bonds>  (1) 
0

>  <i_lp_mmshare_version>  (1) 
72125

>  <i_m_source_file_index>  (1) 
15

>  <i_f3d_flags>  (1) 
0

>  <num_sample>  (1) 
50

>  <b_lp_Chiralities_Consistent>  (1) 
1

>  <r_epik_Charging_Adjusted_Penalty>  (1) 
0

>  <r_epik_Ionization_Penalty>  (1) 
3.933197540425548e-12

>  <r_epik_Ionization_Penalty_Charging>  (1) 
0

>  <r_epik_Ionization_Penalty_Neutral>  (1) 
3.933197540425548e-12

>  <r_epik_State_Penalty>  (1) 
-0

>  <r_glide_ring_energy>  (1) 
0.00017049435676393324

>  <r_i_docking_score>  (1) 
-4.8453483419383385

>  <r_i_glide_ecoul>  (1) 
-0.31247783727129241

>  <r_i_glide_eff_state_penalty>  (1) 
-0

>  <r_i_glide_einternal>  (1) 
0

>  <r_i_glide_emodel>  (1) 
-21.4980978459912

>  <r_i_glide_emodel_strain>  (1) 
0

>  <r_i_glide_energy>  (1) 
-16.19261420723603

>  <r_i_glide_erotb>  (1) 
0

>  <r_i_glide_esite>  (1) 
0

>  <r_i_glide_evdw>  (1) 
-15.880136369964738

>  <r_i_glide_gscore>  (1) 
-4.8453483419383385

>  <r_i_glide_gscore_strain>  (1) 
0

>  <r_i_glide_hbond>  (1) 
0

>  <r_i_glide_ligand_efficiency>  (1) 
-0.69219262027690553

>  <r_i_glide_ligand_efficiency_ln>  (1) 
-1.644771258041299

>  <r_i_glide_ligand_efficiency_sa>  (1) 
-1.3241168478126202

>  <r_i_glide_lipo>  (1) 
-1.5242909135342322

>  <r_i_glide_metal>  (1) 
-0

>  <r_i_glide_rewards>  (1) 
-2.4801789343151746

>  <r_lp_Energy>  (1) 
9.641

>  <r_lp_tautomer_probability>  (1) 
1

>  <s_epik_cmdline>  (1) 
J2VwaWtfcHl0aG9uJywgJy1waHQnLCAnMS4wJywgJy1waCcsICc3LjQnLCAnLXRuJywgJzgnLCAnLW1hJywgJzUwMCcsICctaW1hZScsICc8aW5maWxlLm1hZT4nLCAnLW9tYWUnLCAnPG91dGZpbGUubWFlPic=

>  <s_epik_input>  (1) 
W0NIMl0xT1tDSDJdW0NIMl1bQ0gyXU9bQ0gyXTE=

>  <s_glide_docking_method>  (1) 
confgen

>  <s_i_glide_gridfile>  (1) 
gpcr_drd2_6luq_protein_autoprepared_prepared

>  <s_lp_Force_Field>  (1) 
S-OPLS

>  <s_lp_Variant>  (1) 
Pocket2Mol_14-1

>  <s_m_source_file>  (1) 
generated_generic_title2_ligand_Pocket2Mol_2026-06-23_prepared.sdf

>  <GenAI_Model>  (1) 
Pocket2Mol

>  <Protein>  (1) 
generic_title2

$$$$
Pocket2Mol_6
     RDKit          3D

  0  0  0  0  0  0  0  0  0  0999 V3000
M  V30 BEGIN CTAB
M  V30 COUNTS 11 11 0 0 1
M  V30 BEGIN ATOM
M  V30 1 N 11.775413 9.191238 -4.479165 0
M  V30 2 C 12.177346 9.091054 -3.189256 0
M  V30 3 C 12.203769 7.878717 -2.475116 0
M  V30 4 C 11.793184 6.705603 -3.123456 0
M  V30 5 C 11.372986 6.790227 -4.459260 0
M  V30 6 C 11.375750 8.049881 -5.091996 0
M  V30 7 H 12.488017 10.006453 -2.713515 0
M  V30 8 H 12.534239 7.853712 -1.448296 0
M  V30 9 H 11.800175 5.757641 -2.605728 0
M  V30 10 H 11.047726 5.908755 -4.991079 0
M  V30 11 H 11.053986 8.145058 -6.118292 0
M  V30 END ATOM
M  V30 BEGIN BOND
M  V30 1 2 2 1
M  V30 2 1 3 2
M  V30 3 2 4 3
M  V30 4 1 5 4
M  V30 5 1 6 1
M  V30 6 2 6 5
M  V30 7 1 7 2
M  V30 8 1 8 3
M  V30 9 1 9 4
M  V30 10 1 10 5
M  V30 11 1 11 6
M  V30 END BOND
M  V30 END CTAB
M  END
>  <i_epik_Tot_Q>  (1) 
0

>  <i_epik_Tot_abs_Q>  (1) 
0

>  <i_i_glide_confnum>  (1) 
1

>  <i_i_glide_lignum>  (1) 
7

>  <i_i_glide_posenum>  (1) 
254

>  <i_i_glide_rotatable_bonds>  (1) 
0

>  <i_lp_mmshare_version>  (1) 
72125

>  <i_m_source_file_index>  (1) 
7

>  <i_f3d_flags>  (1) 
0

>  <num_sample>  (1) 
50

>  <b_lp_Chiralities_Consistent>  (1) 
1

>  <r_epik_Charging_Adjusted_Penalty>  (1) 
0

>  <r_epik_Ionization_Penalty>  (1) 
0.0028947865417402485

>  <r_epik_Ionization_Penalty_Charging>  (1) 
0

>  <r_epik_Ionization_Penalty_Neutral>  (1) 
0.0028947865417402485

>  <r_epik_State_Penalty>  (1) 
-0

>  <r_glide_ring_energy>  (1) 
0

>  <r_i_docking_score>  (1) 
-4.8442250047811681

>  <r_i_glide_ecoul>  (1) 
-1.3443035020974359

>  <r_i_glide_eff_state_penalty>  (1) 
-0

>  <r_i_glide_einternal>  (1) 
0

>  <r_i_glide_emodel>  (1) 
-19.979744568057729

>  <r_i_glide_emodel_strain>  (1) 
0

>  <r_i_glide_energy>  (1) 
-15.381977401946335

>  <r_i_glide_erotb>  (1) 
0

>  <r_i_glide_esite>  (1) 
0

>  <r_i_glide_evdw>  (1) 
-14.037673899848899

>  <r_i_glide_gscore>  (1) 
-4.8442250047811681

>  <r_i_glide_gscore_strain>  (1) 
0

>  <r_i_glide_hbond>  (1) 
0

>  <r_i_glide_ligand_efficiency>  (1) 
-0.80737083413019473

>  <r_i_glide_ligand_efficiency_ln>  (1) 
-1.7351870955131523

>  <r_i_glide_ligand_efficiency_sa>  (1) 
-1.4670901687500386

>  <r_i_glide_lipo>  (1) 
-1.4487609159579959

>  <r_i_glide_metal>  (1) 
-0

>  <r_i_glide_rewards>  (1) 
-2.4919348685161125

>  <r_lp_Energy>  (1) 
11.088944

>  <r_lp_tautomer_probability>  (1) 
1

>  <s_epik_cmdline>  (1) 
J2VwaWtfcHl0aG9uJywgJy1waHQnLCAnMS4wJywgJy1waCcsICc3LjQnLCAnLXRuJywgJzgnLCAnLW1hJywgJzUwMCcsICctaW1hZScsICc8aW5maWxlLm1hZT4nLCAnLW9tYWUnLCAnPG91dGZpbGUubWFlPic=

>  <s_epik_input>  (1) 
bjFbY0hdW2NIXVtjSF1bY0hdW2NIXTE=

>  <s_glide_docking_method>  (1) 
confgen

>  <s_i_glide_gridfile>  (1) 
gpcr_drd2_6luq_protein_autoprepared_prepared

>  <s_lp_Force_Field>  (1) 
S-OPLS

>  <s_lp_Variant>  (1) 
Pocket2Mol_6-1

>  <s_m_source_file>  (1) 
generated_generic_title2_ligand_Pocket2Mol_2026-06-23_prepared.sdf

>  <GenAI_Model>  (1) 
Pocket2Mol

>  <Protein>  (1) 
generic_title2

$$$$
Pocket2Mol_15
     RDKit          3D

  0  0  0  0  0  0  0  0  0  0999 V3000
M  V30 BEGIN CTAB
M  V30 COUNTS 19 19 0 0 1
M  V30 BEGIN ATOM
M  V30 1 C 11.188147 9.345391 -5.173542 0
M  V30 2 O 10.166286 8.789868 -5.984990 0
M  V30 3 C 10.760418 7.992647 -6.998433 0
M  V30 4 C 11.066991 6.596546 -6.426343 0
M  V30 5 C 9.775606 7.876621 -8.167693 0
M  V30 6 C 12.276665 9.702244 -6.166345 0
M  V30 7 C 12.021224 8.790150 -7.364603 0
M  V30 8 H 10.827864 10.212874 -4.619473 0
M  V30 9 H 11.538535 8.607087 -4.451668 0
M  V30 10 H 11.490231 5.942605 -7.187866 0
M  V30 11 H 10.158080 6.121043 -6.056155 0
M  V30 12 H 11.775404 6.629657 -5.600362 0
M  V30 13 H 10.214316 7.334834 -9.005756 0
M  V30 14 H 8.876408 7.340202 -7.864494 0
M  V30 15 H 9.460174 8.853939 -8.531785 0
M  V30 16 H 12.161461 10.747995 -6.449453 0
M  V30 17 H 13.275649 9.589031 -5.744513 0
M  V30 18 H 12.868390 8.140167 -7.585141 0
M  V30 19 H 11.849309 9.399949 -8.252483 0
M  V30 END ATOM
M  V30 BEGIN BOND
M  V30 1 1 2 1
M  V30 2 1 3 2
M  V30 3 1 4 3
M  V30 4 1 5 3
M  V30 5 1 6 1
M  V30 6 1 7 3
M  V30 7 1 7 6
M  V30 8 1 8 1
M  V30 9 1 9 1
M  V30 10 1 10 4
M  V30 11 1 11 4
M  V30 12 1 12 4
M  V30 13 1 13 5
M  V30 14 1 14 5
M  V30 15 1 15 5
M  V30 16 1 16 6
M  V30 17 1 17 6
M  V30 18 1 18 7
M  V30 19 1 19 7
M  V30 END BOND
M  V30 END CTAB
M  END
>  <i_epik_Tot_Q>  (1) 
0

>  <i_epik_Tot_abs_Q>  (1) 
0

>  <i_i_glide_confnum>  (1) 
2

>  <i_i_glide_lignum>  (1) 
18

>  <i_i_glide_posenum>  (1) 
151

>  <i_i_glide_rotatable_bonds>  (1) 
0

>  <i_lp_mmshare_version>  (1) 
72125

>  <i_m_source_file_index>  (1) 
16

>  <i_f3d_flags>  (1) 
0

>  <num_sample>  (1) 
50

>  <b_lp_Chiralities_Consistent>  (1) 
1

>  <r_epik_Charging_Adjusted_Penalty>  (1) 
0

>  <r_epik_Ionization_Penalty>  (1) 
1.3889264151150229e-11

>  <r_epik_Ionization_Penalty_Charging>  (1) 
0

>  <r_epik_Ionization_Penalty_Neutral>  (1) 
1.3889264151150229e-11

>  <r_epik_State_Penalty>  (1) 
-0

>  <r_glide_ring_energy>  (1) 
9.1057515726855501e-05

>  <r_i_docking_score>  (1) 
-4.8439806240299905

>  <r_i_glide_ecoul>  (1) 
-0.24231132597737998

>  <r_i_glide_eff_state_penalty>  (1) 
-0

>  <r_i_glide_einternal>  (1) 
0

>  <r_i_glide_emodel>  (1) 
-20.54309362481245

>  <r_i_glide_emodel_strain>  (1) 
0.66623417108077554

>  <r_i_glide_energy>  (1) 
-16.109759120717293

>  <r_i_glide_erotb>  (1) 
0

>  <r_i_glide_esite>  (1) 
0

>  <r_i_glide_evdw>  (1) 
-15.867447794739912

>  <r_i_glide_gscore>  (1) 
-4.8439806240299905

>  <r_i_glide_gscore_strain>  (1) 
0

>  <r_i_glide_hbond>  (1) 
0

>  <r_i_glide_ligand_efficiency>  (1) 
-0.69199723200428431

>  <r_i_glide_ligand_efficiency_ln>  (1) 
-1.6443069811831652

>  <r_i_glide_ligand_efficiency_sa>  (1) 
-1.3237430834931752

>  <r_i_glide_lipo>  (1) 
-1.3903791432269805

>  <r_i_glide_metal>  (1) 
-0

>  <r_i_glide_rewards>  (1) 
-2.6238823921694072

>  <r_lp_Energy>  (1) 
0.043719999999999995

>  <r_lp_tautomer_probability>  (1) 
1

>  <s_epik_cmdline>  (1) 
J2VwaWtfcHl0aG9uJywgJy1waHQnLCAnMS4wJywgJy1waCcsICc3LjQnLCAnLXRuJywgJzgnLCAnLW1hJywgJzUwMCcsICctaW1hZScsICc8aW5maWxlLm1hZT4nLCAnLW9tYWUnLCAnPG91dGZpbGUubWFlPic=

>  <s_epik_input>  (1) 
W0NIMl0xW0NIMl1bQ0gyXU9DMShbQ0gzXSlbQ0gzXQ==

>  <s_glide_docking_method>  (1) 
confgen

>  <s_i_glide_gridfile>  (1) 
gpcr_drd2_6luq_protein_autoprepared_prepared

>  <s_lp_Force_Field>  (1) 
S-OPLS

>  <s_lp_Variant>  (1) 
Pocket2Mol_15-1

>  <s_m_source_file>  (1) 
generated_generic_title2_ligand_Pocket2Mol_2026-06-23_prepared.sdf

>  <GenAI_Model>  (1) 
Pocket2Mol

>  <Protein>  (1) 
generic_title2

$$$$
Pocket2Mol_30
     RDKit          3D

  0  0  0  0  0  0  0  0  0  0999 V3000
M  V30 BEGIN CTAB
M  V30 COUNTS 20 21 0 0 1
M  V30 BEGIN ATOM
M  V30 1 C 11.259401 8.272509 -8.779530 0
M  V30 2 O 11.906297 8.725136 -7.590681 0
M  V30 3 C 11.184388 8.316377 -6.424805 0 CFG=2
M  V30 4 C 11.405664 9.357049 -5.333514 0
M  V30 5 C 11.376673 6.824620 -6.108417 0
M  V30 6 C 9.775409 8.238901 -8.430933 0
M  V30 7 C 9.908377 6.576927 -6.401603 0
M  V30 8 C 9.777997 8.008034 -6.945258 0 CFG=1
M  V30 9 H 11.478925 8.922653 -9.626735 0
M  V30 10 H 11.616320 7.270396 -9.020710 0
M  V30 11 H 10.974531 9.043464 -4.384639 0
M  V30 12 H 10.961811 10.315377 -5.603522 0
M  V30 13 H 12.469186 9.525891 -5.163320 0
M  V30 14 H 12.048010 6.308242 -6.793937 0
M  V30 15 H 11.646380 6.620971 -5.071506 0
M  V30 16 H 9.299851 9.190016 -8.670403 0
M  V30 17 H 9.250147 7.456953 -8.979409 0
M  V30 18 H 9.722498 5.792511 -7.136230 0
M  V30 19 H 9.375109 6.394843 -5.474145 0
M  V30 20 H 8.993285 8.552664 -6.417995 0
M  V30 END ATOM
M  V30 BEGIN BOND
M  V30 1 1 2 1
M  V30 2 1 3 2
M  V30 3 1 3 4 CFG=1
M  V30 4 1 5 3
M  V30 5 1 6 1
M  V30 6 1 7 5
M  V30 7 1 8 3
M  V30 8 1 8 6
M  V30 9 1 8 7
M  V30 10 1 9 1
M  V30 11 1 10 1
M  V30 12 1 11 4
M  V30 13 1 12 4
M  V30 14 1 13 4
M  V30 15 1 14 5
M  V30 16 1 15 5
M  V30 17 1 16 6
M  V30 18 1 17 6
M  V30 19 1 18 7
M  V30 20 1 19 7
M  V30 21 1 8 20 CFG=1
M  V30 END BOND
M  V30 END CTAB
M  END
>  <i_epik_Tot_Q>  (1) 
0

>  <i_epik_Tot_abs_Q>  (1) 
0

>  <i_i_glide_confnum>  (1) 
1

>  <i_i_glide_lignum>  (1) 
34

>  <i_i_glide_posenum>  (1) 
295

>  <i_i_glide_rotatable_bonds>  (1) 
0

>  <i_lp_mmshare_version>  (1) 
72125

>  <i_m_source_file_index>  (1) 
31

>  <i_f3d_flags>  (1) 
0

>  <num_sample>  (1) 
50

>  <b_lp_Chiralities_Consistent>  (1) 
1

>  <r_epik_Charging_Adjusted_Penalty>  (1) 
0

>  <r_epik_Ionization_Penalty>  (1) 
2.3587344998035955e-11

>  <r_epik_Ionization_Penalty_Charging>  (1) 
0

>  <r_epik_Ionization_Penalty_Neutral>  (1) 
2.3587344998035955e-11

>  <r_epik_State_Penalty>  (1) 
-0

>  <r_glide_ring_energy>  (1) 
0

>  <r_i_docking_score>  (1) 
-4.8394635261990882

>  <r_i_glide_ecoul>  (1) 
-0.45869945714450888

>  <r_i_glide_eff_state_penalty>  (1) 
-0

>  <r_i_glide_einternal>  (1) 
0

>  <r_i_glide_emodel>  (1) 
-19.737658470393598

>  <r_i_glide_emodel_strain>  (1) 
0

>  <r_i_glide_energy>  (1) 
-15.283820305374054

>  <r_i_glide_erotb>  (1) 
0

>  <r_i_glide_esite>  (1) 
0

>  <r_i_glide_evdw>  (1) 
-14.825120848229545

>  <r_i_glide_gscore>  (1) 
-4.8394635261990882

>  <r_i_glide_gscore_strain>  (1) 
0

>  <r_i_glide_hbond>  (1) 
0

>  <r_i_glide_ligand_efficiency>  (1) 
-0.60493294077488602

>  <r_i_glide_ligand_efficiency_ln>  (1) 
-1.5715393394216408

>  <r_i_glide_ligand_efficiency_sa>  (1) 
-1.2098658815497723

>  <r_i_glide_lipo>  (1) 
-1.2260477019602036

>  <r_i_glide_metal>  (1) 
-0

>  <r_i_glide_rewards>  (1) 
-2.8033548632557306

>  <r_lp_Energy>  (1) 
15.613807

>  <r_lp_tautomer_probability>  (1) 
1

>  <s_epik_cmdline>  (1) 
J2VwaWtfcHl0aG9uJywgJy1waHQnLCAnMS4wJywgJy1waCcsICc3LjQnLCAnLXRuJywgJzgnLCAnLW1hJywgJzUwMCcsICctaW1hZScsICc8aW5maWxlLm1hZT4nLCAnLW9tYWUnLCAnPG91dGZpbGUubWFlPic=

>  <s_epik_input>  (1) 
TzFbQ0gyXVtDSDJdW0NASF0oW0NAXTEyW0NIM10pW0NIMl1bQ0gyXTI=

>  <s_glide_docking_method>  (1) 
confgen

>  <s_i_glide_gridfile>  (1) 
gpcr_drd2_6luq_protein_autoprepared_prepared

>  <s_lp_Force_Field>  (1) 
S-OPLS

>  <s_lp_Variant>  (1) 
Pocket2Mol_30-1

>  <s_m_source_file>  (1) 
generated_generic_title2_ligand_Pocket2Mol_2026-06-23_prepared.sdf

>  <GenAI_Model>  (1) 
Pocket2Mol

>  <Protein>  (1) 
generic_title2

$$$$
Pocket2Mol_12
     RDKit          3D

  0  0  0  0  0  0  0  0  0  0999 V3000
M  V30 BEGIN CTAB
M  V30 COUNTS 15 15 0 0 1
M  V30 BEGIN ATOM
M  V30 1 N 11.276054 6.906429 -4.785852 0
M  V30 2 C 11.775411 6.782087 -3.511190 0
M  V30 3 C 12.201233 8.037743 -3.101772 0
M  V30 4 C 11.375413 8.190583 -5.185025 0
M  V30 5 C 12.813282 8.390264 -1.779378 0
M  V30 6 N 10.959540 8.662253 -6.418234 0
M  V30 7 C 11.935916 8.935470 -4.202610 0
M  V30 8 H 11.782856 5.825539 -3.008560 0
M  V30 9 H 12.975326 7.492811 -1.185043 0
M  V30 10 H 13.775611 8.865491 -1.938051 0
M  V30 11 H 12.170430 9.073968 -1.224083 0
M  V30 12 H 11.041972 9.630722 -6.689731 0
M  V30 13 H 10.889278 6.152119 -5.336370 0
M  V30 14 H 12.134927 9.993284 -4.249532 0
M  V30 15 H 10.531724 8.070375 -7.117742 0
M  V30 END ATOM
M  V30 BEGIN BOND
M  V30 1 1 2 1
M  V30 2 2 3 2
M  V30 3 1 4 1
M  V30 4 1 5 3
M  V30 5 1 6 4
M  V30 6 1 7 3
M  V30 7 2 7 4
M  V30 8 1 8 2
M  V30 9 1 9 5
M  V30 10 1 10 5
M  V30 11 1 11 5
M  V30 12 1 12 6
M  V30 13 1 13 1
M  V30 14 1 14 7
M  V30 15 1 15 6
M  V30 END BOND
M  V30 END CTAB
M  END
>  <i_epik_Tot_Q>  (1) 
0

>  <i_epik_Tot_abs_Q>  (1) 
0

>  <i_i_glide_confnum>  (1) 
1

>  <i_i_glide_lignum>  (1) 
15

>  <i_i_glide_posenum>  (1) 
234

>  <i_i_glide_rotatable_bonds>  (1) 
0

>  <i_lp_mmshare_version>  (1) 
72125

>  <i_m_source_file_index>  (1) 
13

>  <i_f3d_flags>  (1) 
0

>  <num_sample>  (1) 
50

>  <b_lp_Chiralities_Consistent>  (1) 
1

>  <r_epik_Charging_Adjusted_Penalty>  (1) 
0

>  <r_epik_Ionization_Penalty>  (1) 
0.00031849139131666116

>  <r_epik_Ionization_Penalty_Charging>  (1) 
0

>  <r_epik_Ionization_Penalty_Neutral>  (1) 
0.00031849139131666116

>  <r_epik_State_Penalty>  (1) 
-0

>  <r_glide_ring_energy>  (1) 
0

>  <r_i_docking_score>  (1) 
-4.8373472056818985

>  <r_i_glide_ecoul>  (1) 
-1.8626707764963979

>  <r_i_glide_eff_state_penalty>  (1) 
-0

>  <r_i_glide_einternal>  (1) 
0

>  <r_i_glide_emodel>  (1) 
-24.010182135746025

>  <r_i_glide_emodel_strain>  (1) 
0.00320198504410385

>  <r_i_glide_energy>  (1) 
-17.854311539746295

>  <r_i_glide_erotb>  (1) 
0

>  <r_i_glide_esite>  (1) 
0

>  <r_i_glide_evdw>  (1) 
-15.991640763249896

>  <r_i_glide_gscore>  (1) 
-4.8373472056818985

>  <r_i_glide_gscore_strain>  (1) 
0

>  <r_i_glide_hbond>  (1) 
0

>  <r_i_glide_ligand_efficiency>  (1) 
-0.69104960081169975

>  <r_i_glide_ligand_efficiency_ln>  (1) 
-1.6420552430063511

>  <r_i_glide_ligand_efficiency_sa>  (1) 
-1.3219303302351122

>  <r_i_glide_lipo>  (1) 
-1.5083645510449437

>  <r_i_glide_metal>  (1) 
-0

>  <r_i_glide_rewards>  (1) 
-2.25

>  <r_lp_Energy>  (1) 
-3.18065

>  <r_lp_tautomer_probability>  (1) 
1

>  <s_epik_cmdline>  (1) 
J2VwaWtfcHl0aG9uJywgJy1waHQnLCAnMS4wJywgJy1waCcsICc3LjQnLCAnLXRuJywgJzgnLCAnLW1hJywgJzUwMCcsICctaW1hZScsICc8aW5maWxlLm1hZT4nLCAnLW9tYWUnLCAnPG91dGZpbGUubWFlPic=

>  <s_epik_input>  (1) 
W05IMl1DKFtDSDJdMSk9TltDSF09QzFbQ0gzXQ==

>  <s_glide_docking_method>  (1) 
confgen

>  <s_i_glide_gridfile>  (1) 
gpcr_drd2_6luq_protein_autoprepared_prepared

>  <s_lp_Force_Field>  (1) 
S-OPLS

>  <s_lp_Variant>  (1) 
Pocket2Mol_12-1

>  <s_m_source_file>  (1) 
generated_generic_title2_ligand_Pocket2Mol_2026-06-23_prepared.sdf

>  <GenAI_Model>  (1) 
Pocket2Mol

>  <Protein>  (1) 
generic_title2

$$$$
Pocket2Mol_20
     RDKit          3D

  0  0  0  0  0  0  0  0  0  0999 V3000
M  V30 BEGIN CTAB
M  V30 COUNTS 12 12 0 0 1
M  V30 BEGIN ATOM
M  V30 1 N 10.966183 8.035106 -5.982729 0
M  V30 2 C 11.161845 6.934943 -5.227290 0
M  V30 3 C 11.774300 6.993190 -3.971770 0
M  V30 4 C 12.175478 8.250624 -3.517229 0
M  V30 5 N 12.777059 8.390228 -2.273850 0
M  V30 6 N 11.993792 9.368211 -4.245173 0
M  V30 7 C 11.395616 9.181431 -5.433631 0
M  V30 8 H 10.824337 5.994387 -5.636758 0
M  V30 9 H 11.922362 6.102978 -3.378011 0
M  V30 10 H 12.930282 7.598281 -1.670031 0
M  V30 11 H 13.063498 9.297746 -1.926326 0
M  V30 12 H 11.240597 10.071672 -6.025157 0
M  V30 END ATOM
M  V30 BEGIN BOND
M  V30 1 1 2 1
M  V30 2 2 3 2
M  V30 3 1 4 3
M  V30 4 1 5 4
M  V30 5 2 6 4
M  V30 6 2 7 1
M  V30 7 1 7 6
M  V30 8 1 8 2
M  V30 9 1 9 3
M  V30 10 1 10 5
M  V30 11 1 11 5
M  V30 12 1 12 7
M  V30 END BOND
M  V30 END CTAB
M  END
>  <i_epik_Tot_Q>  (1) 
0

>  <i_epik_Tot_abs_Q>  (1) 
0

>  <i_i_glide_confnum>  (1) 
1

>  <i_i_glide_lignum>  (1) 
24

>  <i_i_glide_posenum>  (1) 
391

>  <i_i_glide_rotatable_bonds>  (1) 
0

>  <i_lp_mmshare_version>  (1) 
72125

>  <i_m_source_file_index>  (1) 
21

>  <i_f3d_flags>  (1) 
0

>  <num_sample>  (1) 
50

>  <b_lp_Chiralities_Consistent>  (1) 
1

>  <r_epik_Charging_Adjusted_Penalty>  (1) 
0.011441366301234922

>  <r_epik_Ionization_Penalty>  (1) 
0.011523414685131987

>  <r_epik_Ionization_Penalty_Charging>  (1) 
0

>  <r_epik_Ionization_Penalty_Neutral>  (1) 
0.011523414685131987

>  <r_epik_State_Penalty>  (1) 
0.011441366301234922

>  <r_glide_ring_energy>  (1) 
0

>  <r_i_docking_score>  (1) 
-4.8304889271442146

>  <r_i_glide_ecoul>  (1) 
-1.6156610678432837

>  <r_i_glide_eff_state_penalty>  (1) 
0.011441366301234922

>  <r_i_glide_einternal>  (1) 
0

>  <r_i_glide_emodel>  (1) 
-24.765439726793886

>  <r_i_glide_emodel_strain>  (1) 
0

>  <r_i_glide_energy>  (1) 
-18.688718440842745

>  <r_i_glide_erotb>  (1) 
0

>  <r_i_glide_esite>  (1) 
0

>  <r_i_glide_evdw>  (1) 
-17.073057372999461

>  <r_i_glide_gscore>  (1) 
-4.8419302934454498

>  <r_i_glide_gscore_strain>  (1) 
0

>  <r_i_glide_hbond>  (1) 
-0.19917535663544692

>  <r_i_glide_ligand_efficiency>  (1) 
-0.6900698467348878

>  <r_i_glide_ligand_efficiency_ln>  (1) 
-1.6397271752138274

>  <r_i_glide_ligand_efficiency_sa>  (1) 
-1.3200561281101302

>  <r_i_glide_lipo>  (1) 
-0.84675290798353686

>  <r_i_glide_metal>  (1) 
-0

>  <r_i_glide_rewards>  (1) 
-2.7000000000000002

>  <r_lp_Energy>  (1) 
9.3523319999999988

>  <r_lp_tautomer_probability>  (1) 
0.9999995832001739

>  <s_epik_cmdline>  (1) 
J2VwaWtfcHl0aG9uJywgJy1waHQnLCAnMS4wJywgJy1waCcsICc3LjQnLCAnLXRuJywgJzgnLCAnLW1hJywgJzUwMCcsICctaW1hZScsICc8aW5maWxlLm1hZT4nLCAnLW9tYWUnLCAnPG91dGZpbGUubWFlPic=

>  <s_epik_input>  (1) 
bjFbY0hdbltjSF1bY0hdYzFbTkgyXQ==

>  <s_glide_docking_method>  (1) 
confgen

>  <s_i_glide_gridfile>  (1) 
gpcr_drd2_6luq_protein_autoprepared_prepared

>  <s_lp_Force_Field>  (1) 
S-OPLS

>  <s_lp_Variant>  (1) 
Pocket2Mol_20-1

>  <s_m_source_file>  (1) 
generated_generic_title2_ligand_Pocket2Mol_2026-06-23_prepared.sdf

>  <GenAI_Model>  (1) 
Pocket2Mol

>  <Protein>  (1) 
generic_title2

$$$$
Pocket2Mol_39
     RDKit          3D

  0  0  0  0  0  0  0  0  0  0999 V3000
M  V30 BEGIN CTAB
M  V30 COUNTS 14 14 0 0 1
M  V30 BEGIN ATOM
M  V30 1 C 9.940981 7.183115 -8.695694 0
M  V30 2 O 11.323095 7.451508 -8.855810 0
M  V30 3 C 11.872784 8.291473 -7.919392 0
M  V30 4 C 9.627842 6.957118 -7.218361 0
M  V30 5 O 9.996380 8.116665 -6.488256 0
M  V30 6 C 11.242110 8.635046 -6.768278 0
M  V30 7 C 11.875560 9.590638 -5.724677 0
M  V30 8 O 11.170500 9.866137 -4.729483 0 CHG=-1
M  V30 9 O 13.030365 9.989900 -5.985025 0
M  V30 10 H 9.673036 6.309234 -9.287247 0
M  V30 11 H 9.368300 8.023774 -9.084429 0
M  V30 12 H 12.849904 8.649906 -8.210831 0
M  V30 13 H 10.162696 6.088730 -6.833006 0
M  V30 14 H 8.567898 6.764441 -7.076195 0
M  V30 END ATOM
M  V30 BEGIN BOND
M  V30 1 1 2 1
M  V30 2 1 3 2
M  V30 3 1 4 1
M  V30 4 1 5 4
M  V30 5 2 6 3
M  V30 6 1 6 5
M  V30 7 1 7 6
M  V30 8 1 8 7
M  V30 9 2 9 7
M  V30 10 1 10 1
M  V30 11 1 11 1
M  V30 12 1 12 3
M  V30 13 1 13 4
M  V30 14 1 14 4
M  V30 END BOND
M  V30 END CTAB
M  END
>  <i_epik_Tot_Q>  (1) 
-1

>  <i_epik_Tot_abs_Q>  (1) 
1

>  <i_i_glide_confnum>  (1) 
1

>  <i_i_glide_lignum>  (1) 
44

>  <i_i_glide_posenum>  (1) 
42

>  <i_i_glide_rotatable_bonds>  (1) 
1

>  <i_lp_mmshare_version>  (1) 
72125

>  <i_m_source_file_index>  (1) 
40

>  <i_f3d_flags>  (1) 
0

>  <num_sample>  (1) 
50

>  <b_lp_Chiralities_Consistent>  (1) 
1

>  <r_epik_Charging_Adjusted_Penalty>  (1) 
1.9393830553820406e-05

>  <r_epik_Ionization_Penalty>  (1) 
1.9393830553820406e-05

>  <r_epik_Ionization_Penalty_Charging>  (1) 
1.9393830553820406e-05

>  <r_epik_Ionization_Penalty_Neutral>  (1) 
0

>  <r_epik_State_Penalty>  (1) 
-0

>  <r_glide_ring_energy>  (1) 
0

>  <r_i_docking_score>  (1) 
-4.8157501484296352

>  <r_i_glide_ecoul>  (1) 
-2.2406510164241684

>  <r_i_glide_eff_state_penalty>  (1) 
-0

>  <r_i_glide_einternal>  (1) 
0.20605320975399732

>  <r_i_glide_emodel>  (1) 
-25.743579243120887

>  <r_i_glide_emodel_strain>  (1) 
0

>  <r_i_glide_energy>  (1) 
-18.770924925352169

>  <r_i_glide_erotb>  (1) 
0

>  <r_i_glide_esite>  (1) 
0

>  <r_i_glide_evdw>  (1) 
-16.530273908928002

>  <r_i_glide_gscore>  (1) 
-4.8157501484296352

>  <r_i_glide_gscore_strain>  (1) 
0

>  <r_i_glide_hbond>  (1) 
0

>  <r_i_glide_ligand_efficiency>  (1) 
-0.53508334982551498

>  <r_i_glide_ligand_efficiency_ln>  (1) 
-1.5062283026867938

>  <r_i_glide_ligand_efficiency_sa>  (1) 
-1.1130182199564769

>  <r_i_glide_lipo>  (1) 
-0.49480546718627666

>  <r_i_glide_metal>  (1) 
-0

>  <r_i_glide_rewards>  (1) 
-3.1583333333333332

>  <r_lp_Energy>  (1) 
18.695968999999998

>  <r_lp_tautomer_probability>  (1) 
1

>  <s_epik_cmdline>  (1) 
J2VwaWtfcHl0aG9uJywgJy1waHQnLCAnMS4wJywgJy1waCcsICc3LjQnLCAnLXRuJywgJzgnLCAnLW1hJywgJzUwMCcsICctaW1hZScsICc8aW5maWxlLm1hZT4nLCAnLW9tYWUnLCAnPG91dGZpbGUubWFlPic=

>  <s_epik_input>  (1) 
TzFbQ0gyXVtDSDJdT1tDSF09QzFDKD1PKVtPSF0=

>  <s_glide_docking_method>  (1) 
confgen

>  <s_i_glide_gridfile>  (1) 
gpcr_drd2_6luq_protein_autoprepared_prepared

>  <s_lp_Force_Field>  (1) 
S-OPLS

>  <s_lp_Variant>  (1) 
Pocket2Mol_39-1

>  <s_m_source_file>  (1) 
generated_generic_title2_ligand_Pocket2Mol_2026-06-23_prepared.sdf

>  <GenAI_Model>  (1) 
Pocket2Mol

>  <Protein>  (1) 
generic_title2

$$$$
Pocket2Mol_34
     RDKit          3D

  0  0  0  0  0  0  0  0  0  0999 V3000
M  V30 BEGIN CTAB
M  V30 COUNTS 17 18 0 0 1
M  V30 BEGIN ATOM
M  V30 1 C 12.175411 7.660742 -2.750046 0
M  V30 2 O 11.546166 6.703858 -3.691258 0
M  V30 3 C 11.375410 7.476041 -4.785024 0
M  V30 4 C 11.775411 8.761988 -4.669526 0
M  V30 5 C 11.652690 9.647522 -5.751450 0
M  V30 6 N 11.125413 9.190227 -6.909577 0 CHG=1
M  V30 7 C 10.702169 7.911450 -7.065110 0
M  V30 8 C 10.818587 7.006649 -5.988510 0
M  V30 9 C 12.328879 9.131441 -3.365445 0
M  V30 10 H 13.155861 7.271871 -2.477702 0
M  V30 11 H 11.588543 7.696226 -1.831343 0
M  V30 12 H 11.949925 10.684913 -5.734943 0
M  V30 13 H 10.289376 7.657444 -8.032419 0
M  V30 14 H 10.490093 5.990226 -6.086225 0
M  V30 15 H 13.363916 9.467460 -3.432915 0
M  V30 16 H 11.710302 9.871867 -2.856385 0
M  V30 17 H 11.036389 9.833753 -7.696768 0
M  V30 END ATOM
M  V30 BEGIN BOND
M  V30 1 1 2 1
M  V30 2 1 3 2
M  V30 3 2 4 3
M  V30 4 1 5 4
M  V30 5 2 6 5
M  V30 6 1 7 6
M  V30 7 1 8 3
M  V30 8 2 8 7
M  V30 9 1 9 1
M  V30 10 1 9 4
M  V30 11 1 10 1
M  V30 12 1 11 1
M  V30 13 1 12 5
M  V30 14 1 13 7
M  V30 15 1 14 8
M  V30 16 1 15 9
M  V30 17 1 16 9
M  V30 18 1 17 6
M  V30 END BOND
M  V30 END CTAB
M  END
>  <i_epik_Tot_Q>  (1) 
1

>  <i_epik_Tot_abs_Q>  (1) 
1

>  <i_i_glide_confnum>  (1) 
1

>  <i_i_glide_lignum>  (1) 
38

>  <i_i_glide_posenum>  (1) 
342

>  <i_i_glide_rotatable_bonds>  (1) 
0

>  <i_lp_mmshare_version>  (1) 
72125

>  <i_m_source_file_index>  (1) 
35

>  <i_f3d_flags>  (1) 
0

>  <num_sample>  (1) 
50

>  <b_lp_Chiralities_Consistent>  (1) 
1

>  <r_epik_Charging_Adjusted_Penalty>  (1) 
0.75885481127580179

>  <r_epik_Ionization_Penalty>  (1) 
0.37942740563790117

>  <r_epik_Ionization_Penalty_Charging>  (1) 
0.37942740563790117

>  <r_epik_Ionization_Penalty_Neutral>  (1) 
0

>  <r_epik_State_Penalty>  (1) 
0.37942740563790056

>  <r_glide_ring_energy>  (1) 
0

>  <r_i_docking_score>  (1) 
-4.8155393837022871

>  <r_i_glide_ecoul>  (1) 
0.24803329336809687

>  <r_i_glide_eff_state_penalty>  (1) 
0.37942740563790056

>  <r_i_glide_einternal>  (1) 
0

>  <r_i_glide_emodel>  (1) 
-28.431326227646629

>  <r_i_glide_emodel_strain>  (1) 
0

>  <r_i_glide_energy>  (1) 
-18.548895530959282

>  <r_i_glide_erotb>  (1) 
0

>  <r_i_glide_esite>  (1) 
0

>  <r_i_glide_evdw>  (1) 
-18.796928824327377

>  <r_i_glide_gscore>  (1) 
-5.1949667893401879

>  <r_i_glide_gscore_strain>  (1) 
0

>  <r_i_glide_hbond>  (1) 
0

>  <r_i_glide_ligand_efficiency>  (1) 
-0.53505993152247633

>  <r_i_glide_ligand_efficiency_ln>  (1) 
-1.5061623815347913

>  <r_i_glide_ligand_efficiency_sa>  (1) 
-1.1129695079231627

>  <r_i_glide_lipo>  (1) 
-1.7786363814524129

>  <r_i_glide_metal>  (1) 
-0

>  <r_i_glide_rewards>  (1) 
-2.5136889606766202

>  <r_lp_Energy>  (1) 
18.327531999999998

>  <s_epik_cmdline>  (1) 
J2VwaWtfcHl0aG9uJywgJy1waHQnLCAnMS4wJywgJy1waCcsICc3LjQnLCAnLXRuJywgJzgnLCAnLW1hJywgJzUwMCcsICctaW1hZScsICc8aW5maWxlLm1hZT4nLCAnLW9tYWUnLCAnPG91dGZpbGUubWFlPic=

>  <s_epik_input>  (1) 
TzFbQ0gyXVtDSDJdYyhjMTIpW2NIXW5bY0hdW2NIXTI=

>  <s_glide_docking_method>  (1) 
confgen

>  <s_i_glide_gridfile>  (1) 
gpcr_drd2_6luq_protein_autoprepared_prepared

>  <s_lp_Force_Field>  (1) 
S-OPLS

>  <s_lp_Variant>  (1) 
Pocket2Mol_34-1

>  <s_m_source_file>  (1) 
generated_generic_title2_ligand_Pocket2Mol_2026-06-23_prepared.sdf

>  <GenAI_Model>  (1) 
Pocket2Mol

>  <Protein>  (1) 
generic_title2

$$$$
Pocket2Mol_29
     RDKit          3D

  0  0  0  0  0  0  0  0  0  0999 V3000
M  V30 BEGIN CTAB
M  V30 COUNTS 14 14 0 0 1
M  V30 BEGIN ATOM
M  V30 1 N 11.065141 8.808329 -6.403879 0
M  V30 2 C 10.888229 7.536012 -5.995279 0
M  V30 3 C 11.375410 7.074211 -4.770816 0
M  V30 4 C 12.061243 8.001475 -3.968113 0
M  V30 5 O 12.575690 7.666555 -2.732627 0
M  V30 6 C 11.742381 9.591789 -5.550691 0
M  V30 7 N 12.257641 9.277150 -4.351079 0
M  V30 8 C 12.239760 6.407561 -2.167220 0
M  V30 9 H 10.345391 6.879787 -6.660570 0
M  V30 10 H 11.220094 6.052428 -4.461397 0
M  V30 11 H 11.890095 10.612850 -5.870472 0
M  V30 12 H 12.746957 6.294109 -1.210375 0
M  V30 13 H 11.165652 6.310065 -2.000814 0
M  V30 14 H 12.577570 5.589857 -2.795482 0
M  V30 END ATOM
M  V30 BEGIN BOND
M  V30 1 1 2 1
M  V30 2 2 3 2
M  V30 3 1 4 3
M  V30 4 1 5 4
M  V30 5 2 6 1
M  V30 6 2 7 4
M  V30 7 1 7 6
M  V30 8 1 8 5
M  V30 9 1 9 2
M  V30 10 1 10 3
M  V30 11 1 11 6
M  V30 12 1 12 8
M  V30 13 1 13 8
M  V30 14 1 14 8
M  V30 END BOND
M  V30 END CTAB
M  END
>  <i_epik_Tot_Q>  (1) 
0

>  <i_epik_Tot_abs_Q>  (1) 
0

>  <i_i_glide_confnum>  (1) 
1

>  <i_i_glide_lignum>  (1) 
33

>  <i_i_glide_posenum>  (1) 
1

>  <i_i_glide_rotatable_bonds>  (1) 
1

>  <i_lp_mmshare_version>  (1) 
72125

>  <i_m_source_file_index>  (1) 
30

>  <i_f3d_flags>  (1) 
0

>  <num_sample>  (1) 
50

>  <b_lp_Chiralities_Consistent>  (1) 
1

>  <r_epik_Charging_Adjusted_Penalty>  (1) 
0

>  <r_epik_Ionization_Penalty>  (1) 
8.6638422661064201e-06

>  <r_epik_Ionization_Penalty_Charging>  (1) 
0

>  <r_epik_Ionization_Penalty_Neutral>  (1) 
8.6638422661064201e-06

>  <r_epik_State_Penalty>  (1) 
-0

>  <r_glide_ring_energy>  (1) 
0

>  <r_i_docking_score>  (1) 
-4.814540736582936

>  <r_i_glide_ecoul>  (1) 
-1.0718435511552638

>  <r_i_glide_eff_state_penalty>  (1) 
-0

>  <r_i_glide_einternal>  (1) 
3.9561296511417252

>  <r_i_glide_emodel>  (1) 
-23.694779081682647

>  <r_i_glide_emodel_strain>  (1) 
0

>  <r_i_glide_energy>  (1) 
-19.692490183584262

>  <r_i_glide_erotb>  (1) 
0

>  <r_i_glide_esite>  (1) 
0

>  <r_i_glide_evdw>  (1) 
-18.620646632428997

>  <r_i_glide_gscore>  (1) 
-4.814540736582936

>  <r_i_glide_gscore_strain>  (1) 
0

>  <r_i_glide_hbond>  (1) 
0

>  <r_i_glide_ligand_efficiency>  (1) 
-0.601817592072867

>  <r_i_glide_ligand_efficiency_ln>  (1) 
-1.5634460571563906

>  <r_i_glide_ligand_efficiency_sa>  (1) 
-1.2036351841457342

>  <r_i_glide_lipo>  (1) 
-1.0241864497166506

>  <r_i_glide_metal>  (1) 
-0

>  <r_i_glide_rewards>  (1) 
-2.6985454225715459

>  <r_lp_Energy>  (1) 
14.393509

>  <r_lp_tautomer_probability>  (1) 
1

>  <s_epik_cmdline>  (1) 
J2VwaWtfcHl0aG9uJywgJy1waHQnLCAnMS4wJywgJy1waCcsICc3LjQnLCAnLXRuJywgJzgnLCAnLW1hJywgJzUwMCcsICctaW1hZScsICc8aW5maWxlLm1hZT4nLCAnLW9tYWUnLCAnPG91dGZpbGUubWFlPic=

>  <s_epik_input>  (1) 
bjFbY0hdbltjSF1bY0hdYzFPW0NIM10=

>  <s_glide_docking_method>  (1) 
confgen

>  <s_i_glide_gridfile>  (1) 
gpcr_drd2_6luq_protein_autoprepared_prepared

>  <s_lp_Force_Field>  (1) 
S-OPLS

>  <s_lp_Variant>  (1) 
Pocket2Mol_29-1

>  <s_m_source_file>  (1) 
generated_generic_title2_ligand_Pocket2Mol_2026-06-23_prepared.sdf

>  <GenAI_Model>  (1) 
Pocket2Mol

>  <Protein>  (1) 
generic_title2

$$$$
Pocket2Mol_23
     RDKit          3D

  0  0  0  0  0  0  0  0  0  0999 V3000
M  V30 BEGIN CTAB
M  V30 COUNTS 15 16 0 0 1
M  V30 BEGIN ATOM
M  V30 1 C 9.358770 8.364688 -6.784968 0
M  V30 2 O 10.451185 9.190252 -6.385119 0
M  V30 3 C 11.680523 8.732611 -6.937600 0 CFG=2
M  V30 4 C 11.741182 8.440031 -8.419209 0 CFG=1
M  V30 5 O 13.068127 8.390200 -8.905101 0
M  V30 6 C 9.969252 7.008157 -7.121448 0
M  V30 7 C 11.392496 7.344004 -7.423675 0 CFG=2
M  V30 8 H 8.588800 8.311098 -6.016125 0
M  V30 9 H 8.905067 8.801720 -7.675561 0
M  V30 10 H 12.575269 8.955705 -6.363043 0
M  V30 11 H 10.996627 8.846298 -9.101865 0
M  V30 12 H 13.334653 9.258322 -9.185042 0
M  V30 13 H 9.930677 6.340701 -6.259939 0
M  V30 14 H 9.479453 6.522883 -7.966386 0
M  V30 15 H 12.129463 6.579492 -7.185026 0
M  V30 END ATOM
M  V30 BEGIN BOND
M  V30 1 1 2 1
M  V30 2 1 3 2
M  V30 3 1 4 3
M  V30 4 1 5 4
M  V30 5 1 6 1
M  V30 6 1 7 3
M  V30 7 1 7 4
M  V30 8 1 7 6
M  V30 9 1 8 1
M  V30 10 1 9 1
M  V30 11 1 3 10 CFG=1
M  V30 12 1 4 11 CFG=3
M  V30 13 1 12 5
M  V30 14 1 13 6
M  V30 15 1 14 6
M  V30 16 1 7 15 CFG=1
M  V30 END BOND
M  V30 END CTAB
M  END
>  <i_epik_Tot_Q>  (1) 
0

>  <i_epik_Tot_abs_Q>  (1) 
0

>  <i_i_glide_confnum>  (1) 
1

>  <i_i_glide_lignum>  (1) 
27

>  <i_i_glide_posenum>  (1) 
364

>  <i_i_glide_rotatable_bonds>  (1) 
1

>  <i_lp_mmshare_version>  (1) 
72125

>  <i_m_source_file_index>  (1) 
24

>  <i_f3d_flags>  (1) 
0

>  <num_sample>  (1) 
50

>  <b_lp_Chiralities_Consistent>  (1) 
1

>  <r_epik_Charging_Adjusted_Penalty>  (1) 
0

>  <r_epik_Ionization_Penalty>  (1) 
4.3639151522347116e-08

>  <r_epik_Ionization_Penalty_Charging>  (1) 
0

>  <r_epik_Ionization_Penalty_Neutral>  (1) 
4.3639151522347116e-08

>  <r_epik_State_Penalty>  (1) 
-0

>  <r_glide_ring_energy>  (1) 
0

>  <r_i_docking_score>  (1) 
-4.8132254501190639

>  <r_i_glide_ecoul>  (1) 
-3.5312729791579867

>  <r_i_glide_eff_state_penalty>  (1) 
-0

>  <r_i_glide_einternal>  (1) 
0.19216332128729513

>  <r_i_glide_emodel>  (1) 
-24.947032790285725

>  <r_i_glide_emodel_strain>  (1) 
0

>  <r_i_glide_energy>  (1) 
-18.532285742690743

>  <r_i_glide_erotb>  (1) 
0

>  <r_i_glide_esite>  (1) 
0

>  <r_i_glide_evdw>  (1) 
-15.001012763532755

>  <r_i_glide_gscore>  (1) 
-4.8132254501190639

>  <r_i_glide_gscore_strain>  (1) 
0

>  <r_i_glide_hbond>  (1) 
-0.28379505102936242

>  <r_i_glide_ligand_efficiency>  (1) 
-0.68760363573129479

>  <r_i_glide_ligand_efficiency_ln>  (1) 
-1.6338670246485814

>  <r_i_glide_ligand_efficiency_sa>  (1) 
-1.3153384361780609

>  <r_i_glide_lipo>  (1) 
-0.67468881403936509

>  <r_i_glide_metal>  (1) 
-0

>  <r_i_glide_rewards>  (1) 
-2.5750000000000002

>  <r_lp_Energy>  (1) 
3.2309049999999999

>  <r_lp_tautomer_probability>  (1) 
1

>  <s_epik_cmdline>  (1) 
J2VwaWtfcHl0aG9uJywgJy1waHQnLCAnMS4wJywgJy1waCcsICc3LjQnLCAnLXRuJywgJzgnLCAnLW1hJywgJzUwMCcsICctaW1hZScsICc8aW5maWxlLm1hZT4nLCAnLW9tYWUnLCAnPG91dGZpbGUubWFlPic=

>  <s_epik_input>  (1) 
TzFbQ0gyXVtDSDJdW0NIXShbQ0BIXTEyKVtDQEBIXTJbT0hd

>  <s_glide_docking_method>  (1) 
confgen

>  <s_i_glide_gridfile>  (1) 
gpcr_drd2_6luq_protein_autoprepared_prepared

>  <s_lp_Force_Field>  (1) 
S-OPLS

>  <s_lp_Variant>  (1) 
Pocket2Mol_23-1

>  <s_m_source_file>  (1) 
generated_generic_title2_ligand_Pocket2Mol_2026-06-23_prepared.sdf

>  <GenAI_Model>  (1) 
Pocket2Mol

>  <Protein>  (1) 
generic_title2

$$$$
Pocket2Mol_22
     RDKit          3D

  0  0  0  0  0  0  0  0  0  0999 V3000
M  V30 BEGIN CTAB
M  V30 COUNTS 11 11 0 0 1
M  V30 BEGIN ATOM
M  V30 1 N 11.375411 7.599206 -9.168397 0
M  V30 2 C 12.141530 8.390228 -8.378992 0
M  V30 3 C 11.761743 8.794067 -7.083354 0
M  V30 4 C 10.184497 7.190391 -8.662750 0
M  V30 5 C 9.724901 7.541678 -7.377753 0
M  V30 6 F 12.571484 9.590227 -6.343564 0
M  V30 7 C 10.529979 8.360158 -6.573380 0
M  V30 8 H 13.085216 8.711217 -8.795218 0
M  V30 9 H 9.582289 6.563619 -9.303997 0
M  V30 10 H 8.765455 7.190226 -7.022181 0
M  V30 11 H 10.207602 8.651504 -5.585025 0
M  V30 END ATOM
M  V30 BEGIN BOND
M  V30 1 2 2 1
M  V30 2 1 3 2
M  V30 3 1 4 1
M  V30 4 2 5 4
M  V30 5 1 6 3
M  V30 6 2 7 3
M  V30 7 1 7 5
M  V30 8 1 8 2
M  V30 9 1 9 4
M  V30 10 1 10 5
M  V30 11 1 11 7
M  V30 END BOND
M  V30 END CTAB
M  END
>  <i_epik_Tot_Q>  (1) 
0

>  <i_epik_Tot_abs_Q>  (1) 
0

>  <i_i_glide_confnum>  (1) 
1

>  <i_i_glide_lignum>  (1) 
26

>  <i_i_glide_posenum>  (1) 
142

>  <i_i_glide_rotatable_bonds>  (1) 
0

>  <i_lp_mmshare_version>  (1) 
72125

>  <i_m_source_file_index>  (1) 
23

>  <i_f3d_flags>  (1) 
0

>  <num_sample>  (1) 
50

>  <b_lp_Chiralities_Consistent>  (1) 
1

>  <r_epik_Charging_Adjusted_Penalty>  (1) 
0

>  <r_epik_Ionization_Penalty>  (1) 
7.3223601380878174e-05

>  <r_epik_Ionization_Penalty_Charging>  (1) 
0

>  <r_epik_Ionization_Penalty_Neutral>  (1) 
7.3223601380878174e-05

>  <r_epik_State_Penalty>  (1) 
-0

>  <r_glide_ring_energy>  (1) 
0

>  <r_i_docking_score>  (1) 
-4.8106906126463302

>  <r_i_glide_ecoul>  (1) 
-1.3117125563379211

>  <r_i_glide_eff_state_penalty>  (1) 
-0

>  <r_i_glide_einternal>  (1) 
0

>  <r_i_glide_emodel>  (1) 
-20.47310491027411

>  <r_i_glide_emodel_strain>  (1) 
0

>  <r_i_glide_energy>  (1) 
-15.55884129647414

>  <r_i_glide_erotb>  (1) 
0

>  <r_i_glide_esite>  (1) 
0

>  <r_i_glide_evdw>  (1) 
-14.247128740136219

>  <r_i_glide_gscore>  (1) 
-4.8106906126463302

>  <r_i_glide_gscore_strain>  (1) 
0

>  <r_i_glide_hbond>  (1) 
0

>  <r_i_glide_ligand_efficiency>  (1) 
-0.68724151609233286

>  <r_i_glide_ligand_efficiency_ln>  (1) 
-1.6330065647755787

>  <r_i_glide_ligand_efficiency_sa>  (1) 
-1.3146457262287963

>  <r_i_glide_lipo>  (1) 
-0.7682439588554979

>  <r_i_glide_metal>  (1) 
-0

>  <r_i_glide_rewards>  (1) 
-3.1333333333333333

>  <r_lp_Energy>  (1) 
10.789624

>  <r_lp_tautomer_probability>  (1) 
1

>  <s_epik_cmdline>  (1) 
J2VwaWtfcHl0aG9uJywgJy1waHQnLCAnMS4wJywgJy1waCcsICc3LjQnLCAnLXRuJywgJzgnLCAnLW1hJywgJzUwMCcsICctaW1hZScsICc8aW5maWxlLm1hZT4nLCAnLW9tYWUnLCAnPG91dGZpbGUubWFlPic=

>  <s_epik_input>  (1) 
W2NIXTFbY0hdW2NIXW5bY0hdYzFG

>  <s_glide_docking_method>  (1) 
confgen

>  <s_i_glide_gridfile>  (1) 
gpcr_drd2_6luq_protein_autoprepared_prepared

>  <s_lp_Force_Field>  (1) 
S-OPLS

>  <s_lp_Variant>  (1) 
Pocket2Mol_22-1

>  <s_m_source_file>  (1) 
generated_generic_title2_ligand_Pocket2Mol_2026-06-23_prepared.sdf

>  <GenAI_Model>  (1) 
Pocket2Mol

>  <Protein>  (1) 
generic_title2

$$$$
Pocket2Mol_12
     RDKit          3D

  0  0  0  0  0  0  0  0  0  0999 V3000
M  V30 BEGIN CTAB
M  V30 COUNTS 15 15 0 0 1
M  V30 BEGIN ATOM
M  V30 1 N 9.402584 7.544429 -8.081861 0
M  V30 2 C 9.375408 7.048949 -6.801575 0
M  V30 3 C 10.653731 7.172596 -6.274340 0
M  V30 4 C 10.648040 7.966879 -8.373675 0
M  V30 5 C 11.105548 6.764315 -4.900626 0
M  V30 6 N 11.024637 8.516253 -9.585026 0
M  V30 7 C 11.461753 7.771134 -7.310823 0
M  V30 8 H 8.460355 6.657813 -6.380672 0
M  V30 9 H 10.267145 6.378327 -4.320614 0
M  V30 10 H 11.860249 5.982547 -4.971726 0
M  V30 11 H 11.533460 7.615946 -4.372236 0
M  V30 12 H 11.965790 8.828535 -9.777548 0
M  V30 13 H 8.600613 7.590227 -8.710408 0
M  V30 14 H 12.511204 8.019419 -7.266537 0
M  V30 15 H 10.380310 8.635873 -10.353400 0
M  V30 END ATOM
M  V30 BEGIN BOND
M  V30 1 1 2 1
M  V30 2 2 3 2
M  V30 3 1 4 1
M  V30 4 1 5 3
M  V30 5 1 6 4
M  V30 6 1 7 3
M  V30 7 2 7 4
M  V30 8 1 8 2
M  V30 9 1 9 5
M  V30 10 1 10 5
M  V30 11 1 11 5
M  V30 12 1 12 6
M  V30 13 1 13 1
M  V30 14 1 14 7
M  V30 15 1 15 6
M  V30 END BOND
M  V30 END CTAB
M  END
>  <i_epik_Tot_Q>  (1) 
0

>  <i_epik_Tot_abs_Q>  (1) 
0

>  <i_i_glide_confnum>  (1) 
1

>  <i_i_glide_lignum>  (1) 
15

>  <i_i_glide_posenum>  (1) 
198

>  <i_i_glide_rotatable_bonds>  (1) 
0

>  <i_lp_mmshare_version>  (1) 
72125

>  <i_m_source_file_index>  (1) 
13

>  <i_f3d_flags>  (1) 
0

>  <num_sample>  (1) 
50

>  <b_lp_Chiralities_Consistent>  (1) 
1

>  <r_epik_Charging_Adjusted_Penalty>  (1) 
0

>  <r_epik_Ionization_Penalty>  (1) 
0.00031849139131666116

>  <r_epik_Ionization_Penalty_Charging>  (1) 
0

>  <r_epik_Ionization_Penalty_Neutral>  (1) 
0.00031849139131666116

>  <r_epik_State_Penalty>  (1) 
-0

>  <r_glide_ring_energy>  (1) 
0

>  <r_i_docking_score>  (1) 
-4.792012911420632

>  <r_i_glide_ecoul>  (1) 
-3.4377553327745023

>  <r_i_glide_eff_state_penalty>  (1) 
-0

>  <r_i_glide_einternal>  (1) 
0

>  <r_i_glide_emodel>  (1) 
-23.530045114864127

>  <r_i_glide_emodel_strain>  (1) 
0.0026178224512740655

>  <r_i_glide_energy>  (1) 
-17.431311499057756

>  <r_i_glide_erotb>  (1) 
0

>  <r_i_glide_esite>  (1) 
-0.10000000000000001

>  <r_i_glide_evdw>  (1) 
-13.993556166283254

>  <r_i_glide_gscore>  (1) 
-4.792012911420632

>  <r_i_glide_gscore_strain>  (1) 
0

>  <r_i_glide_hbond>  (1) 
-0.16

>  <r_i_glide_ligand_efficiency>  (1) 
-0.6845732730600903

>  <r_i_glide_ligand_efficiency_ln>  (1) 
-1.6266663506208163

>  <r_i_glide_ligand_efficiency_sa>  (1) 
-1.3095415609292043

>  <r_i_glide_lipo>  (1) 
-0.76667180319029382

>  <r_i_glide_metal>  (1) 
-0

>  <r_i_glide_rewards>  (1) 
-2.5499999999999998

>  <r_lp_Energy>  (1) 
-3.18065

>  <r_lp_tautomer_probability>  (1) 
1

>  <s_epik_cmdline>  (1) 
J2VwaWtfcHl0aG9uJywgJy1waHQnLCAnMS4wJywgJy1waCcsICc3LjQnLCAnLXRuJywgJzgnLCAnLW1hJywgJzUwMCcsICctaW1hZScsICc8aW5maWxlLm1hZT4nLCAnLW9tYWUnLCAnPG91dGZpbGUubWFlPic=

>  <s_epik_input>  (1) 
W05IMl1DKFtDSDJdMSk9TltDSF09QzFbQ0gzXQ==

>  <s_glide_docking_method>  (1) 
confgen

>  <s_i_glide_gridfile>  (1) 
gpcr_drd2_6luq_protein_autoprepared_prepared

>  <s_lp_Force_Field>  (1) 
S-OPLS

>  <s_lp_Variant>  (1) 
Pocket2Mol_12-1

>  <s_m_source_file>  (1) 
generated_generic_title2_ligand_Pocket2Mol_2026-06-23_prepared.sdf

>  <GenAI_Model>  (1) 
Pocket2Mol

>  <Protein>  (1) 
generic_title2

$$$$
Pocket2Mol_29
     RDKit          3D

  0  0  0  0  0  0  0  0  0  0999 V3000
M  V30 BEGIN CTAB
M  V30 COUNTS 14 14 0 0 1
M  V30 BEGIN ATOM
M  V30 1 N 10.859709 8.641307 -6.430264 0
M  V30 2 C 10.865798 7.343494 -6.060021 0
M  V30 3 C 11.375411 6.923925 -4.829303 0
M  V30 4 C 11.881636 7.909436 -3.985025 0
M  V30 5 O 12.398386 7.581506 -2.747073 0
M  V30 6 C 11.375168 9.492270 -5.530260 0
M  V30 7 N 11.891506 9.221026 -4.321773 0
M  V30 8 C 12.830461 8.632431 -1.890294 0
M  V30 9 H 10.456609 6.632791 -6.762732 0
M  V30 10 H 11.373916 5.882511 -4.543764 0
M  V30 11 H 11.373896 10.533942 -5.815807 0
M  V30 12 H 13.206899 8.219861 -0.955154 0
M  V30 13 H 13.642435 9.190201 -2.354954 0
M  V30 14 H 12.013211 9.314510 -1.648331 0
M  V30 END ATOM
M  V30 BEGIN BOND
M  V30 1 1 2 1
M  V30 2 2 3 2
M  V30 3 1 4 3
M  V30 4 1 5 4
M  V30 5 2 6 1
M  V30 6 2 7 4
M  V30 7 1 7 6
M  V30 8 1 8 5
M  V30 9 1 9 2
M  V30 10 1 10 3
M  V30 11 1 11 6
M  V30 12 1 12 8
M  V30 13 1 13 8
M  V30 14 1 14 8
M  V30 END BOND
M  V30 END CTAB
M  END
>  <i_epik_Tot_Q>  (1) 
0

>  <i_epik_Tot_abs_Q>  (1) 
0

>  <i_i_glide_confnum>  (1) 
1

>  <i_i_glide_lignum>  (1) 
33

>  <i_i_glide_posenum>  (1) 
313

>  <i_i_glide_rotatable_bonds>  (1) 
1

>  <i_lp_mmshare_version>  (1) 
72125

>  <i_m_source_file_index>  (1) 
30

>  <i_f3d_flags>  (1) 
0

>  <num_sample>  (1) 
50

>  <b_lp_Chiralities_Consistent>  (1) 
1

>  <r_epik_Charging_Adjusted_Penalty>  (1) 
0

>  <r_epik_Ionization_Penalty>  (1) 
8.6638422661064201e-06

>  <r_epik_Ionization_Penalty_Charging>  (1) 
0

>  <r_epik_Ionization_Penalty_Neutral>  (1) 
8.6638422661064201e-06

>  <r_epik_State_Penalty>  (1) 
-0

>  <r_glide_ring_energy>  (1) 
0

>  <r_i_docking_score>  (1) 
-4.7828160582452126

>  <r_i_glide_ecoul>  (1) 
-0.976784556868594

>  <r_i_glide_eff_state_penalty>  (1) 
-0

>  <r_i_glide_einternal>  (1) 
0.014744109539442274

>  <r_i_glide_emodel>  (1) 
-25.331464929996269

>  <r_i_glide_emodel_strain>  (1) 
0

>  <r_i_glide_energy>  (1) 
-19.397889885447764

>  <r_i_glide_erotb>  (1) 
0

>  <r_i_glide_esite>  (1) 
0

>  <r_i_glide_evdw>  (1) 
-18.42110532857917

>  <r_i_glide_gscore>  (1) 
-4.7828160582452126

>  <r_i_glide_gscore_strain>  (1) 
0

>  <r_i_glide_hbond>  (1) 
0

>  <r_i_glide_ligand_efficiency>  (1) 
-0.59785200728065158

>  <r_i_glide_ligand_efficiency_ln>  (1) 
-1.5531439689665893

>  <r_i_glide_ligand_efficiency_sa>  (1) 
-1.1957040145613034

>  <r_i_glide_lipo>  (1) 
-1.0152741820716327

>  <r_i_glide_metal>  (1) 
-0

>  <r_i_glide_rewards>  (1) 
-2.6999689262143334

>  <r_lp_Energy>  (1) 
14.393509

>  <r_lp_tautomer_probability>  (1) 
1

>  <s_epik_cmdline>  (1) 
J2VwaWtfcHl0aG9uJywgJy1waHQnLCAnMS4wJywgJy1waCcsICc3LjQnLCAnLXRuJywgJzgnLCAnLW1hJywgJzUwMCcsICctaW1hZScsICc8aW5maWxlLm1hZT4nLCAnLW9tYWUnLCAnPG91dGZpbGUubWFlPic=

>  <s_epik_input>  (1) 
bjFbY0hdbltjSF1bY0hdYzFPW0NIM10=

>  <s_glide_docking_method>  (1) 
confgen

>  <s_i_glide_gridfile>  (1) 
gpcr_drd2_6luq_protein_autoprepared_prepared

>  <s_lp_Force_Field>  (1) 
S-OPLS

>  <s_lp_Variant>  (1) 
Pocket2Mol_29-1

>  <s_m_source_file>  (1) 
generated_generic_title2_ligand_Pocket2Mol_2026-06-23_prepared.sdf

>  <GenAI_Model>  (1) 
Pocket2Mol

>  <Protein>  (1) 
generic_title2

$$$$
Pocket2Mol_6
     RDKit          3D

  0  0  0  0  0  0  0  0  0  0999 V3000
M  V30 BEGIN CTAB
M  V30 COUNTS 11 11 0 0 1
M  V30 BEGIN ATOM
M  V30 1 N 12.132782 9.509603 -4.643977 0
M  V30 2 C 11.373802 8.894532 -5.582850 0
M  V30 3 C 10.975412 7.545620 -5.498183 0
M  V30 4 C 11.382060 6.790498 -4.387218 0
M  V30 5 C 12.175414 7.413284 -3.407252 0
M  V30 6 C 12.522099 8.768140 -3.578374 0
M  V30 7 H 11.073359 9.499194 -6.425962 0
M  V30 8 H 10.367012 7.101562 -6.272879 0
M  V30 9 H 11.094877 5.754372 -4.288890 0
M  V30 10 H 12.510326 6.864631 -2.539515 0
M  V30 11 H 13.128462 9.272338 -2.840544 0
M  V30 END ATOM
M  V30 BEGIN BOND
M  V30 1 2 2 1
M  V30 2 1 3 2
M  V30 3 2 4 3
M  V30 4 1 5 4
M  V30 5 1 6 1
M  V30 6 2 6 5
M  V30 7 1 7 2
M  V30 8 1 8 3
M  V30 9 1 9 4
M  V30 10 1 10 5
M  V30 11 1 11 6
M  V30 END BOND
M  V30 END CTAB
M  END
>  <i_epik_Tot_Q>  (1) 
0

>  <i_epik_Tot_abs_Q>  (1) 
0

>  <i_i_glide_confnum>  (1) 
1

>  <i_i_glide_lignum>  (1) 
7

>  <i_i_glide_posenum>  (1) 
245

>  <i_i_glide_rotatable_bonds>  (1) 
0

>  <i_lp_mmshare_version>  (1) 
72125

>  <i_m_source_file_index>  (1) 
7

>  <i_f3d_flags>  (1) 
0

>  <num_sample>  (1) 
50

>  <b_lp_Chiralities_Consistent>  (1) 
1

>  <r_epik_Charging_Adjusted_Penalty>  (1) 
0

>  <r_epik_Ionization_Penalty>  (1) 
0.0028947865417402485

>  <r_epik_Ionization_Penalty_Charging>  (1) 
0

>  <r_epik_Ionization_Penalty_Neutral>  (1) 
0.0028947865417402485

>  <r_epik_State_Penalty>  (1) 
-0

>  <r_glide_ring_energy>  (1) 
0

>  <r_i_docking_score>  (1) 
-4.7773977051582239

>  <r_i_glide_ecoul>  (1) 
-1.2520588893886091

>  <r_i_glide_eff_state_penalty>  (1) 
-0

>  <r_i_glide_einternal>  (1) 
0

>  <r_i_glide_emodel>  (1) 
-19.979476504243372

>  <r_i_glide_emodel_strain>  (1) 
0

>  <r_i_glide_energy>  (1) 
-15.44513669002067

>  <r_i_glide_erotb>  (1) 
0

>  <r_i_glide_esite>  (1) 
0

>  <r_i_glide_evdw>  (1) 
-14.193077800632061

>  <r_i_glide_gscore>  (1) 
-4.7773977051582239

>  <r_i_glide_gscore_strain>  (1) 
0

>  <r_i_glide_hbond>  (1) 
0

>  <r_i_glide_ligand_efficiency>  (1) 
-0.79623295085970403

>  <r_i_glide_ligand_efficiency_ln>  (1) 
-1.7112497540768492

>  <r_i_glide_ligand_efficiency_sa>  (1) 
-1.4468512916986693

>  <r_i_glide_lipo>  (1) 
-1.479962543366832

>  <r_i_glide_metal>  (1) 
-0

>  <r_i_glide_rewards>  (1) 
-2.3999724383514973

>  <r_lp_Energy>  (1) 
11.088944

>  <r_lp_tautomer_probability>  (1) 
1

>  <s_epik_cmdline>  (1) 
J2VwaWtfcHl0aG9uJywgJy1waHQnLCAnMS4wJywgJy1waCcsICc3LjQnLCAnLXRuJywgJzgnLCAnLW1hJywgJzUwMCcsICctaW1hZScsICc8aW5maWxlLm1hZT4nLCAnLW9tYWUnLCAnPG91dGZpbGUubWFlPic=

>  <s_epik_input>  (1) 
bjFbY0hdW2NIXVtjSF1bY0hdW2NIXTE=

>  <s_glide_docking_method>  (1) 
confgen

>  <s_i_glide_gridfile>  (1) 
gpcr_drd2_6luq_protein_autoprepared_prepared

>  <s_lp_Force_Field>  (1) 
S-OPLS

>  <s_lp_Variant>  (1) 
Pocket2Mol_6-1

>  <s_m_source_file>  (1) 
generated_generic_title2_ligand_Pocket2Mol_2026-06-23_prepared.sdf

>  <GenAI_Model>  (1) 
Pocket2Mol

>  <Protein>  (1) 
generic_title2

$$$$
Pocket2Mol_23
     RDKit          3D

  0  0  0  0  0  0  0  0  0  0999 V3000
M  V30 BEGIN CTAB
M  V30 COUNTS 15 16 0 0 1
M  V30 BEGIN ATOM
M  V30 1 C 10.916998 7.626883 -6.052558 0
M  V30 2 O 9.576532 8.012692 -6.370163 0
M  V30 3 C 9.442657 8.379826 -7.747369 0 CFG=2
M  V30 4 C 9.848305 7.327123 -8.755648 0 CFG=1
M  V30 5 O 9.375432 7.587568 -10.058036 0
M  V30 6 C 11.776370 8.182432 -7.185386 0
M  V30 7 C 10.828272 8.390504 -8.312658 0 CFG=2
M  V30 8 H 11.232058 8.004956 -5.074861 0
M  V30 9 H 10.986491 6.533054 -6.032898 0
M  V30 10 H 8.725157 9.164041 -7.986910 0
M  V30 11 H 9.888484 6.280460 -8.446345 0
M  V30 12 H 8.409028 7.602681 -9.985013 0
M  V30 13 H 12.209885 9.145304 -6.897755 0
M  V30 14 H 12.575096 7.497484 -7.474958 0
M  V30 15 H 11.097293 9.148864 -9.051778 0
M  V30 END ATOM
M  V30 BEGIN BOND
M  V30 1 1 2 1
M  V30 2 1 3 2
M  V30 3 1 4 3
M  V30 4 1 5 4
M  V30 5 1 6 1
M  V30 6 1 7 3
M  V30 7 1 7 4
M  V30 8 1 7 6
M  V30 9 1 8 1
M  V30 10 1 9 1
M  V30 11 1 3 10 CFG=3
M  V30 12 1 4 11 CFG=1
M  V30 13 1 12 5
M  V30 14 1 13 6
M  V30 15 1 14 6
M  V30 16 1 7 15 CFG=3
M  V30 END BOND
M  V30 END CTAB
M  END
>  <i_epik_Tot_Q>  (1) 
0

>  <i_epik_Tot_abs_Q>  (1) 
0

>  <i_i_glide_confnum>  (1) 
1

>  <i_i_glide_lignum>  (1) 
27

>  <i_i_glide_posenum>  (1) 
157

>  <i_i_glide_rotatable_bonds>  (1) 
1

>  <i_lp_mmshare_version>  (1) 
72125

>  <i_m_source_file_index>  (1) 
24

>  <i_f3d_flags>  (1) 
0

>  <num_sample>  (1) 
50

>  <b_lp_Chiralities_Consistent>  (1) 
1

>  <r_epik_Charging_Adjusted_Penalty>  (1) 
0

>  <r_epik_Ionization_Penalty>  (1) 
4.3639151522347116e-08

>  <r_epik_Ionization_Penalty_Charging>  (1) 
0

>  <r_epik_Ionization_Penalty_Neutral>  (1) 
4.3639151522347116e-08

>  <r_epik_State_Penalty>  (1) 
-0

>  <r_glide_ring_energy>  (1) 
0

>  <r_i_docking_score>  (1) 
-4.7753293141277906

>  <r_i_glide_ecoul>  (1) 
-7.1997416421050353

>  <r_i_glide_eff_state_penalty>  (1) 
-0

>  <r_i_glide_einternal>  (1) 
0.33891542845935874

>  <r_i_glide_emodel>  (1) 
-24.345099856398427

>  <r_i_glide_emodel_strain>  (1) 
0.0029317015702439164

>  <r_i_glide_energy>  (1) 
-18.05792249895535

>  <r_i_glide_erotb>  (1) 
0

>  <r_i_glide_esite>  (1) 
0

>  <r_i_glide_evdw>  (1) 
-10.858180856850314

>  <r_i_glide_gscore>  (1) 
-4.7753293141277906

>  <r_i_glide_gscore_strain>  (1) 
0

>  <r_i_glide_hbond>  (1) 
-0.16

>  <r_i_glide_ligand_efficiency>  (1) 
-0.6821899020182558

>  <r_i_glide_ligand_efficiency_ln>  (1) 
-1.6210030423565804

>  <r_i_glide_ligand_efficiency_sa>  (1) 
-1.3049823361431623

>  <r_i_glide_lipo>  (1) 
-0.49052887022744263

>  <r_i_glide_metal>  (1) 
-0

>  <r_i_glide_rewards>  (1) 
-2.5019301547420767

>  <r_lp_Energy>  (1) 
3.2309049999999999

>  <r_lp_tautomer_probability>  (1) 
1

>  <s_epik_cmdline>  (1) 
J2VwaWtfcHl0aG9uJywgJy1waHQnLCAnMS4wJywgJy1waCcsICc3LjQnLCAnLXRuJywgJzgnLCAnLW1hJywgJzUwMCcsICctaW1hZScsICc8aW5maWxlLm1hZT4nLCAnLW9tYWUnLCAnPG91dGZpbGUubWFlPic=

>  <s_epik_input>  (1) 
TzFbQ0gyXVtDSDJdW0NIXShbQ0BIXTEyKVtDQEBIXTJbT0hd

>  <s_glide_docking_method>  (1) 
confgen

>  <s_i_glide_gridfile>  (1) 
gpcr_drd2_6luq_protein_autoprepared_prepared

>  <s_lp_Force_Field>  (1) 
S-OPLS

>  <s_lp_Variant>  (1) 
Pocket2Mol_23-1

>  <s_m_source_file>  (1) 
generated_generic_title2_ligand_Pocket2Mol_2026-06-23_prepared.sdf

>  <GenAI_Model>  (1) 
Pocket2Mol

>  <Protein>  (1) 
generic_title2

$$$$
Pocket2Mol_6
     RDKit          3D

  0  0  0  0  0  0  0  0  0  0999 V3000
M  V30 BEGIN CTAB
M  V30 COUNTS 11 11 0 0 1
M  V30 BEGIN ATOM
M  V30 1 N 12.175414 7.634557 -3.585025 0
M  V30 2 C 11.475826 6.790242 -4.385012 0
M  V30 3 C 10.863928 7.190259 -5.587993 0
M  V30 4 C 10.968371 8.531684 -5.984995 0
M  V30 5 C 11.677682 9.420461 -5.163413 0
M  V30 6 C 12.259852 8.928703 -3.978055 0
M  V30 7 H 11.408474 5.765146 -4.054188 0
M  V30 8 H 10.320639 6.477804 -6.191873 0
M  V30 9 H 10.508664 8.873499 -6.900677 0
M  V30 10 H 11.774910 10.461221 -5.434245 0
M  V30 11 H 12.812465 9.590311 -3.327909 0
M  V30 END ATOM
M  V30 BEGIN BOND
M  V30 1 2 2 1
M  V30 2 1 3 2
M  V30 3 2 4 3
M  V30 4 1 5 4
M  V30 5 1 6 1
M  V30 6 2 6 5
M  V30 7 1 7 2
M  V30 8 1 8 3
M  V30 9 1 9 4
M  V30 10 1 10 5
M  V30 11 1 11 6
M  V30 END BOND
M  V30 END CTAB
M  END
>  <i_epik_Tot_Q>  (1) 
0

>  <i_epik_Tot_abs_Q>  (1) 
0

>  <i_i_glide_confnum>  (1) 
1

>  <i_i_glide_lignum>  (1) 
7

>  <i_i_glide_posenum>  (1) 
378

>  <i_i_glide_rotatable_bonds>  (1) 
0

>  <i_lp_mmshare_version>  (1) 
72125

>  <i_m_source_file_index>  (1) 
7

>  <i_f3d_flags>  (1) 
0

>  <num_sample>  (1) 
50

>  <b_lp_Chiralities_Consistent>  (1) 
1

>  <r_epik_Charging_Adjusted_Penalty>  (1) 
0

>  <r_epik_Ionization_Penalty>  (1) 
0.0028947865417402485

>  <r_epik_Ionization_Penalty_Charging>  (1) 
0

>  <r_epik_Ionization_Penalty_Neutral>  (1) 
0.0028947865417402485

>  <r_epik_State_Penalty>  (1) 
-0

>  <r_glide_ring_energy>  (1) 
0

>  <r_i_docking_score>  (1) 
-4.7689825289526668

>  <r_i_glide_ecoul>  (1) 
-0.63743378379358284

>  <r_i_glide_eff_state_penalty>  (1) 
-0

>  <r_i_glide_einternal>  (1) 
0

>  <r_i_glide_emodel>  (1) 
-19.528610565523525

>  <r_i_glide_emodel_strain>  (1) 
0

>  <r_i_glide_energy>  (1) 
-15.002257791708065

>  <r_i_glide_erotb>  (1) 
0

>  <r_i_glide_esite>  (1) 
0

>  <r_i_glide_evdw>  (1) 
-14.364824007914482

>  <r_i_glide_gscore>  (1) 
-4.7689825289526668

>  <r_i_glide_gscore_strain>  (1) 
0

>  <r_i_glide_hbond>  (1) 
0

>  <r_i_glide_ligand_efficiency>  (1) 
-0.79483042149211114

>  <r_i_glide_ligand_efficiency_ln>  (1) 
-1.708235462803438

>  <r_i_glide_ligand_efficiency_sa>  (1) 
-1.4443027267027646

>  <r_i_glide_lipo>  (1) 
-1.4134403048527884

>  <r_i_glide_metal>  (1) 
-0

>  <r_i_glide_rewards>  (1) 
-2.5416859561351171

>  <r_lp_Energy>  (1) 
11.088944

>  <r_lp_tautomer_probability>  (1) 
1

>  <s_epik_cmdline>  (1) 
J2VwaWtfcHl0aG9uJywgJy1waHQnLCAnMS4wJywgJy1waCcsICc3LjQnLCAnLXRuJywgJzgnLCAnLW1hJywgJzUwMCcsICctaW1hZScsICc8aW5maWxlLm1hZT4nLCAnLW9tYWUnLCAnPG91dGZpbGUubWFlPic=

>  <s_epik_input>  (1) 
bjFbY0hdW2NIXVtjSF1bY0hdW2NIXTE=

>  <s_glide_docking_method>  (1) 
confgen

>  <s_i_glide_gridfile>  (1) 
gpcr_drd2_6luq_protein_autoprepared_prepared

>  <s_lp_Force_Field>  (1) 
S-OPLS

>  <s_lp_Variant>  (1) 
Pocket2Mol_6-1

>  <s_m_source_file>  (1) 
generated_generic_title2_ligand_Pocket2Mol_2026-06-23_prepared.sdf

>  <GenAI_Model>  (1) 
Pocket2Mol

>  <Protein>  (1) 
generic_title2

$$$$
Pocket2Mol_15
     RDKit          3D

  0  0  0  0  0  0  0  0  0  0999 V3000
M  V30 BEGIN CTAB
M  V30 COUNTS 19 19 0 0 1
M  V30 BEGIN ATOM
M  V30 1 C 10.617730 6.390640 -5.865470 0
M  V30 2 O 11.375351 7.539000 -5.503969 0
M  V30 3 C 11.104307 8.617009 -6.388585 0
M  V30 4 C 11.327431 9.917694 -5.602958 0
M  V30 5 C 12.054400 8.554379 -7.599781 0
M  V30 6 C 9.577405 6.857102 -6.883409 0
M  V30 7 C 9.646064 8.367502 -6.785112 0
M  V30 8 H 11.265380 5.611889 -6.276920 0
M  V30 9 H 10.145353 5.990227 -4.967344 0
M  V30 10 H 11.156470 10.790181 -6.230069 0
M  V30 11 H 12.350810 9.976466 -5.233380 0
M  V30 12 H 10.662768 9.991701 -4.743336 0
M  V30 13 H 11.759827 9.279068 -8.359529 0
M  V30 14 H 13.080303 8.785819 -7.313354 0
M  V30 15 H 12.056545 7.570451 -8.066840 0
M  V30 16 H 9.860042 6.534835 -7.885847 0
M  V30 17 H 8.577947 6.466530 -6.681860 0
M  V30 18 H 8.967521 8.704870 -6.001287 0
M  V30 19 H 9.351815 8.858497 -7.712945 0
M  V30 END ATOM
M  V30 BEGIN BOND
M  V30 1 1 2 1
M  V30 2 1 3 2
M  V30 3 1 4 3
M  V30 4 1 5 3
M  V30 5 1 6 1
M  V30 6 1 7 3
M  V30 7 1 7 6
M  V30 8 1 8 1
M  V30 9 1 9 1
M  V30 10 1 10 4
M  V30 11 1 11 4
M  V30 12 1 12 4
M  V30 13 1 13 5
M  V30 14 1 14 5
M  V30 15 1 15 5
M  V30 16 1 16 6
M  V30 17 1 17 6
M  V30 18 1 18 7
M  V30 19 1 19 7
M  V30 END BOND
M  V30 END CTAB
M  END
>  <i_epik_Tot_Q>  (1) 
0

>  <i_epik_Tot_abs_Q>  (1) 
0

>  <i_i_glide_confnum>  (1) 
4

>  <i_i_glide_lignum>  (1) 
18

>  <i_i_glide_posenum>  (1) 
115

>  <i_i_glide_rotatable_bonds>  (1) 
0

>  <i_lp_mmshare_version>  (1) 
72125

>  <i_m_source_file_index>  (1) 
16

>  <i_f3d_flags>  (1) 
0

>  <num_sample>  (1) 
50

>  <b_lp_Chiralities_Consistent>  (1) 
1

>  <r_epik_Charging_Adjusted_Penalty>  (1) 
0

>  <r_epik_Ionization_Penalty>  (1) 
1.3889264151150229e-11

>  <r_epik_Ionization_Penalty_Charging>  (1) 
0

>  <r_epik_Ionization_Penalty_Neutral>  (1) 
1.3889264151150229e-11

>  <r_epik_State_Penalty>  (1) 
-0

>  <r_glide_ring_energy>  (1) 
0.26153960478789529

>  <r_i_docking_score>  (1) 
-4.7676212917719427

>  <r_i_glide_ecoul>  (1) 
-0.68116092791552407

>  <r_i_glide_eff_state_penalty>  (1) 
-0

>  <r_i_glide_einternal>  (1) 
0

>  <r_i_glide_emodel>  (1) 
-21.614317319939985

>  <r_i_glide_emodel_strain>  (1) 
0.46421008254595897

>  <r_i_glide_energy>  (1) 
-17.059347087434485

>  <r_i_glide_erotb>  (1) 
0

>  <r_i_glide_esite>  (1) 
0

>  <r_i_glide_evdw>  (1) 
-16.378186159518961

>  <r_i_glide_gscore>  (1) 
-4.7676212917719427

>  <r_i_glide_gscore_strain>  (1) 
0

>  <r_i_glide_hbond>  (1) 
0

>  <r_i_glide_ligand_efficiency>  (1) 
-0.68108875596742036

>  <r_i_glide_ligand_efficiency_ln>  (1) 
-1.6183865259097636

>  <r_i_glide_ligand_efficiency_sa>  (1) 
-1.3028759195257327

>  <r_i_glide_lipo>  (1) 
-1.1618831015083377

>  <r_i_glide_metal>  (1) 
-0

>  <r_i_glide_rewards>  (1) 
-2.6846547431003289

>  <r_lp_Energy>  (1) 
0.043719999999999995

>  <r_lp_tautomer_probability>  (1) 
1

>  <s_epik_cmdline>  (1) 
J2VwaWtfcHl0aG9uJywgJy1waHQnLCAnMS4wJywgJy1waCcsICc3LjQnLCAnLXRuJywgJzgnLCAnLW1hJywgJzUwMCcsICctaW1hZScsICc8aW5maWxlLm1hZT4nLCAnLW9tYWUnLCAnPG91dGZpbGUubWFlPic=

>  <s_epik_input>  (1) 
W0NIMl0xW0NIMl1bQ0gyXU9DMShbQ0gzXSlbQ0gzXQ==

>  <s_glide_docking_method>  (1) 
confgen

>  <s_i_glide_gridfile>  (1) 
gpcr_drd2_6luq_protein_autoprepared_prepared

>  <s_lp_Force_Field>  (1) 
S-OPLS

>  <s_lp_Variant>  (1) 
Pocket2Mol_15-1

>  <s_m_source_file>  (1) 
generated_generic_title2_ligand_Pocket2Mol_2026-06-23_prepared.sdf

>  <GenAI_Model>  (1) 
Pocket2Mol

>  <Protein>  (1) 
generic_title2

$$$$
Pocket2Mol_19
     RDKit          3D

  0  0  0  0  0  0  0  0  0  0999 V3000
M  V30 BEGIN CTAB
M  V30 COUNTS 12 12 0 0 1
M  V30 BEGIN ATOM
M  V30 1 N 9.375410 7.784177 -8.507840 0 CHG=1
M  V30 2 C 10.290238 7.778053 -9.495327 0
M  V30 3 C 11.640901 8.044316 -9.200519 0
M  V30 4 C 9.688182 8.035639 -7.218939 0
M  V30 5 O 12.575334 8.038682 -10.188903 0 CHG=-1
M  V30 6 C 12.013980 8.317796 -7.869314 0
M  V30 7 C 11.024764 8.311974 -6.861688 0
M  V30 8 H 9.916873 7.564439 -10.486355 0
M  V30 9 H 8.865147 8.012921 -6.518004 0
M  V30 10 H 8.383111 7.595238 -8.753503 0
M  V30 11 H 13.043494 8.527909 -7.626069 0
M  V30 12 H 11.287506 8.517068 -5.835252 0
M  V30 END ATOM
M  V30 BEGIN BOND
M  V30 1 1 2 1
M  V30 2 2 3 2
M  V30 3 2 4 1
M  V30 4 1 5 3
M  V30 5 1 6 3
M  V30 6 1 7 4
M  V30 7 2 7 6
M  V30 8 1 8 2
M  V30 9 1 9 4
M  V30 10 1 10 1
M  V30 11 1 11 6
M  V30 12 1 12 7
M  V30 END BOND
M  V30 END CTAB
M  END
>  <i_epik_Tot_Q>  (1) 
0

>  <i_epik_Tot_abs_Q>  (1) 
2

>  <i_i_glide_confnum>  (1) 
1

>  <i_i_glide_lignum>  (1) 
22

>  <i_i_glide_posenum>  (1) 
65

>  <i_i_glide_rotatable_bonds>  (1) 
0

>  <i_lp_mmshare_version>  (1) 
72125

>  <i_m_source_file_index>  (1) 
20

>  <i_f3d_flags>  (1) 
0

>  <num_sample>  (1) 
50

>  <b_lp_Chiralities_Consistent>  (1) 
1

>  <r_epik_Charging_Adjusted_Penalty>  (1) 
0.36510749842979956

>  <r_epik_Ionization_Penalty>  (1) 
0.025180683492302028

>  <r_epik_Ionization_Penalty_Charging>  (1) 
0.025180683492302028

>  <r_epik_Ionization_Penalty_Neutral>  (1) 
0

>  <r_epik_State_Penalty>  (1) 
0.33992681493749755

>  <r_glide_ring_energy>  (1) 
0

>  <r_i_docking_score>  (1) 
-4.7548562169883404

>  <r_i_glide_ecoul>  (1) 
-4.6558272466130912

>  <r_i_glide_eff_state_penalty>  (1) 
0.33992681493749755

>  <r_i_glide_einternal>  (1) 
0

>  <r_i_glide_emodel>  (1) 
-25.788472507577957

>  <r_i_glide_emodel_strain>  (1) 
0

>  <r_i_glide_energy>  (1) 
-16.217396991757624

>  <r_i_glide_erotb>  (1) 
0

>  <r_i_glide_esite>  (1) 
-0.10000000000000001

>  <r_i_glide_evdw>  (1) 
-11.561569745144535

>  <r_i_glide_gscore>  (1) 
-5.0947830319258376

>  <r_i_glide_gscore_strain>  (1) 
0

>  <r_i_glide_hbond>  (1) 
-0.20000000000000001

>  <r_i_glide_ligand_efficiency>  (1) 
-0.67926517385547724

>  <r_i_glide_ligand_efficiency_ln>  (1) 
-1.6140533744768539

>  <r_i_glide_ligand_efficiency_sa>  (1) 
-1.2993875324394506

>  <r_i_glide_lipo>  (1) 
-0.73833045767664685

>  <r_i_glide_metal>  (1) 
-0

>  <r_i_glide_rewards>  (1) 
-2.7800000000000002

>  <r_lp_Energy>  (1) 
9.275188

>  <r_lp_tautomer_probability>  (1) 
0.56342000000000003

>  <s_epik_cmdline>  (1) 
J2VwaWtfcHl0aG9uJywgJy1waHQnLCAnMS4wJywgJy1waCcsICc3LjQnLCAnLXRuJywgJzgnLCAnLW1hJywgJzUwMCcsICctaW1hZScsICc8aW5maWxlLm1hZT4nLCAnLW9tYWUnLCAnPG91dGZpbGUubWFlPic=

>  <s_epik_input>  (1) 
W2NIXTFbY0hdW2NIXW5bY0hdYzFbT0hd

>  <s_glide_docking_method>  (1) 
confgen

>  <s_i_glide_gridfile>  (1) 
gpcr_drd2_6luq_protein_autoprepared_prepared

>  <s_lp_Force_Field>  (1) 
S-OPLS

>  <s_lp_Variant>  (1) 
Pocket2Mol_19-1

>  <s_m_source_file>  (1) 
generated_generic_title2_ligand_Pocket2Mol_2026-06-23_prepared.sdf

>  <GenAI_Model>  (1) 
Pocket2Mol

>  <Protein>  (1) 
generic_title2

$$$$
Pocket2Mol_19
     RDKit          3D

  0  0  0  0  0  0  0  0  0  0999 V3000
M  V30 BEGIN CTAB
M  V30 COUNTS 12 12 0 0 1
M  V30 BEGIN ATOM
M  V30 1 N 10.412822 8.685009 -6.182917 0
M  V30 2 C 9.662936 8.191178 -7.199942 0
M  V30 3 C 10.181666 7.907616 -8.480063 0
M  V30 4 C 11.721772 8.916038 -6.439009 0
M  V30 5 O 9.375434 7.412381 -9.465044 0
M  V30 6 C 11.539983 8.146539 -8.727017 0
M  V30 7 C 12.325981 8.662775 -7.688470 0
M  V30 8 H 8.618943 8.018299 -6.983391 0
M  V30 9 H 12.306875 9.308380 -5.618404 0
M  V30 10 H 8.424359 7.590241 -9.354025 0
M  V30 11 H 11.971767 7.941450 -9.696688 0
M  V30 12 H 13.377880 8.860841 -7.843009 0
M  V30 END ATOM
M  V30 BEGIN BOND
M  V30 1 2 2 1
M  V30 2 1 3 2
M  V30 3 1 4 1
M  V30 4 1 5 3
M  V30 5 2 6 3
M  V30 6 2 7 4
M  V30 7 1 7 6
M  V30 8 1 8 2
M  V30 9 1 9 4
M  V30 10 1 10 5
M  V30 11 1 11 6
M  V30 12 1 12 7
M  V30 END BOND
M  V30 END CTAB
M  END
>  <i_epik_Tot_Q>  (1) 
0

>  <i_epik_Tot_abs_Q>  (1) 
0

>  <i_i_glide_confnum>  (1) 
1

>  <i_i_glide_lignum>  (1) 
23

>  <i_i_glide_posenum>  (1) 
298

>  <i_i_glide_rotatable_bonds>  (1) 
1

>  <i_lp_mmshare_version>  (1) 
72125

>  <i_m_source_file_index>  (1) 
20

>  <i_f3d_flags>  (1) 
0

>  <num_sample>  (1) 
50

>  <b_lp_Chiralities_Consistent>  (1) 
1

>  <r_epik_Charging_Adjusted_Penalty>  (1) 
0.49104251329211085

>  <r_epik_Ionization_Penalty>  (1) 
0.049438115990627488

>  <r_epik_Ionization_Penalty_Charging>  (1) 
0

>  <r_epik_Ionization_Penalty_Neutral>  (1) 
0.049438115990627488

>  <r_epik_State_Penalty>  (1) 
0.49104251329211085

>  <r_glide_ring_energy>  (1) 
0

>  <r_i_docking_score>  (1) 
-4.7449688793861107

>  <r_i_glide_ecoul>  (1) 
-9.1913907688139069

>  <r_i_glide_eff_state_penalty>  (1) 
0.49104251329211085

>  <r_i_glide_einternal>  (1) 
0.15335936864355273

>  <r_i_glide_emodel>  (1) 
-26.370291587685184

>  <r_i_glide_emodel_strain>  (1) 
0.059941963563342249

>  <r_i_glide_energy>  (1) 
-19.661316095549637

>  <r_i_glide_erotb>  (1) 
0

>  <r_i_glide_esite>  (1) 
0

>  <r_i_glide_evdw>  (1) 
-10.469925326735728

>  <r_i_glide_gscore>  (1) 
-5.2360113926782219

>  <r_i_glide_gscore_strain>  (1) 
0

>  <r_i_glide_hbond>  (1) 
-0.14900992588130352

>  <r_i_glide_ligand_efficiency>  (1) 
-0.67785269705515871

>  <r_i_glide_ligand_efficiency_ln>  (1) 
-1.6106970814801376

>  <r_i_glide_ligand_efficiency_sa>  (1) 
-1.2966855615231787

>  <r_i_glide_lipo>  (1) 
-0.70979658513804644

>  <r_i_glide_metal>  (1) 
-0

>  <r_i_glide_rewards>  (1) 
-2.4750000000000001

>  <r_lp_Energy>  (1) 
10.560834

>  <r_lp_tautomer_probability>  (1) 
0.43658000000000002

>  <s_epik_cmdline>  (1) 
J2VwaWtfcHl0aG9uJywgJy1waHQnLCAnMS4wJywgJy1waCcsICc3LjQnLCAnLXRuJywgJzgnLCAnLW1hJywgJzUwMCcsICctaW1hZScsICc8aW5maWxlLm1hZT4nLCAnLW9tYWUnLCAnPG91dGZpbGUubWFlPic=

>  <s_epik_input>  (1) 
W2NIXTFbY0hdW2NIXW5bY0hdYzFbT0hd

>  <s_glide_docking_method>  (1) 
confgen

>  <s_i_glide_gridfile>  (1) 
gpcr_drd2_6luq_protein_autoprepared_prepared

>  <s_lp_Force_Field>  (1) 
S-OPLS

>  <s_lp_Variant>  (1) 
Pocket2Mol_19-2

>  <s_m_source_file>  (1) 
generated_generic_title2_ligand_Pocket2Mol_2026-06-23_prepared.sdf

>  <GenAI_Model>  (1) 
Pocket2Mol

>  <Protein>  (1) 
generic_title2

$$$$
Pocket2Mol_13
     RDKit          3D

  0  0  0  0  0  0  0  0  0  0999 V3000
M  V30 BEGIN CTAB
M  V30 COUNTS 17 17 0 0 1
M  V30 BEGIN ATOM
M  V30 1 C 11.863176 8.589260 -7.149393 0
M  V30 2 O 11.855985 9.190192 -8.437370 0
M  V30 3 C 11.378133 8.309712 -9.444344 0
M  V30 4 C 9.912207 7.987405 -9.142822 0 CFG=1
M  V30 5 O 9.375416 7.148853 -10.134225 0
M  V30 6 C 10.435378 8.233320 -6.711637 0
M  V30 7 C 9.775443 7.331905 -7.760971 0
M  V30 8 H 12.486196 7.695239 -7.185878 0
M  V30 9 H 12.321290 9.275797 -6.437743 0
M  V30 10 H 11.987974 7.406201 -9.492246 0
M  V30 11 H 11.464888 8.804814 -10.407616 0
M  V30 12 H 9.340764 8.915029 -9.157468 0
M  V30 13 H 8.423436 7.203431 -10.020071 0
M  V30 14 H 10.445884 7.739705 -5.738975 0
M  V30 15 H 9.856113 9.150210 -6.598402 0
M  V30 16 H 8.725889 7.166643 -7.512607 0
M  V30 17 H 10.252939 6.350887 -7.765719 0
M  V30 END ATOM
M  V30 BEGIN BOND
M  V30 1 1 2 1
M  V30 2 1 3 2
M  V30 3 1 4 3
M  V30 4 1 5 4
M  V30 5 1 6 1
M  V30 6 1 7 4
M  V30 7 1 7 6
M  V30 8 1 8 1
M  V30 9 1 9 1
M  V30 10 1 10 3
M  V30 11 1 11 3
M  V30 12 1 4 12 CFG=1
M  V30 13 1 13 5
M  V30 14 1 14 6
M  V30 15 1 15 6
M  V30 16 1 16 7
M  V30 17 1 17 7
M  V30 END BOND
M  V30 END CTAB
M  END
>  <i_epik_Tot_Q>  (1) 
0

>  <i_epik_Tot_abs_Q>  (1) 
0

>  <i_i_glide_confnum>  (1) 
1

>  <i_i_glide_lignum>  (1) 
16

>  <i_i_glide_posenum>  (1) 
304

>  <i_i_glide_rotatable_bonds>  (1) 
1

>  <i_lp_mmshare_version>  (1) 
72125

>  <i_m_source_file_index>  (1) 
14

>  <i_f3d_flags>  (1) 
0

>  <num_sample>  (1) 
50

>  <b_lp_Chiralities_Consistent>  (1) 
1

>  <r_epik_Charging_Adjusted_Penalty>  (1) 
0

>  <r_epik_Ionization_Penalty>  (1) 
4.2263924331700322e-08

>  <r_epik_Ionization_Penalty_Charging>  (1) 
0

>  <r_epik_Ionization_Penalty_Neutral>  (1) 
4.2263924331700322e-08

>  <r_epik_State_Penalty>  (1) 
-0

>  <r_glide_ring_energy>  (1) 
0

>  <r_i_docking_score>  (1) 
-4.7404377663446109

>  <r_i_glide_ecoul>  (1) 
-4.2620106515363947

>  <r_i_glide_eff_state_penalty>  (1) 
-0

>  <r_i_glide_einternal>  (1) 
0.36947404472684153

>  <r_i_glide_emodel>  (1) 
-22.518704847734565

>  <r_i_glide_emodel_strain>  (1) 
0

>  <r_i_glide_energy>  (1) 
-16.69373726279408

>  <r_i_glide_erotb>  (1) 
0

>  <r_i_glide_esite>  (1) 
0

>  <r_i_glide_evdw>  (1) 
-12.431726611257684

>  <r_i_glide_gscore>  (1) 
-4.7404377663446109

>  <r_i_glide_gscore_strain>  (1) 
0

>  <r_i_glide_hbond>  (1) 
-0.16

>  <r_i_glide_ligand_efficiency>  (1) 
-0.67720539519208722

>  <r_i_glide_ligand_efficiency_ln>  (1) 
-1.6091589785468379

>  <r_i_glide_ligand_efficiency_sa>  (1) 
-1.2954473176046428

>  <r_i_glide_lipo>  (1) 
-0.69454983805126758

>  <r_i_glide_metal>  (1) 
-0

>  <r_i_glide_rewards>  (1) 
-2.625

>  <r_lp_Energy>  (1) 
6.7642049999999996

>  <r_lp_tautomer_probability>  (1) 
1

>  <s_epik_cmdline>  (1) 
J2VwaWtfcHl0aG9uJywgJy1waHQnLCAnMS4wJywgJy1waCcsICc3LjQnLCAnLXRuJywgJzgnLCAnLW1hJywgJzUwMCcsICctaW1hZScsICc8aW5maWxlLm1hZT4nLCAnLW9tYWUnLCAnPG91dGZpbGUubWFlPic=

>  <s_epik_input>  (1) 
W0NIMl0xW0NIMl1bQ0gyXU9bQ0gyXVtDQEhdMVtPSF0=

>  <s_glide_docking_method>  (1) 
confgen

>  <s_i_glide_gridfile>  (1) 
gpcr_drd2_6luq_protein_autoprepared_prepared

>  <s_lp_Force_Field>  (1) 
S-OPLS

>  <s_lp_Variant>  (1) 
Pocket2Mol_13-1

>  <s_m_source_file>  (1) 
generated_generic_title2_ligand_Pocket2Mol_2026-06-23_prepared.sdf

>  <GenAI_Model>  (1) 
Pocket2Mol

>  <Protein>  (1) 
generic_title2

$$$$
Pocket2Mol_16
     RDKit          3D

  0  0  0  0  0  0  0  0  0  0999 V3000
M  V30 BEGIN CTAB
M  V30 COUNTS 12 12 0 0 1
M  V30 BEGIN ATOM
M  V30 1 N 11.171890 8.691321 -5.862101 0
M  V30 2 C 10.975368 7.354453 -5.541734 0
M  V30 3 C 11.428341 6.790251 -4.402275 0
M  V30 4 C 12.175359 7.621358 -3.430536 0
M  V30 5 O 12.609719 7.158216 -2.378014 0
M  V30 6 C 11.869182 9.494237 -4.969025 0
M  V30 7 C 12.369095 9.042410 -3.799490 0
M  V30 8 H 10.425130 6.797262 -6.285820 0
M  V30 9 H 11.260048 5.746780 -4.180141 0
M  V30 10 H 10.814641 9.072243 -6.727770 0
M  V30 11 H 11.980102 10.519857 -5.289476 0
M  V30 12 H 12.907637 9.691099 -3.124453 0
M  V30 END ATOM
M  V30 BEGIN BOND
M  V30 1 1 2 1
M  V30 2 2 3 2
M  V30 3 1 4 3
M  V30 4 2 5 4
M  V30 5 1 6 1
M  V30 6 1 7 4
M  V30 7 2 7 6
M  V30 8 1 8 2
M  V30 9 1 9 3
M  V30 10 1 10 1
M  V30 11 1 11 6
M  V30 12 1 12 7
M  V30 END BOND
M  V30 END CTAB
M  END
>  <i_epik_Tot_Q>  (1) 
0

>  <i_epik_Tot_abs_Q>  (1) 
0

>  <i_i_glide_confnum>  (1) 
1

>  <i_i_glide_lignum>  (1) 
19

>  <i_i_glide_posenum>  (1) 
1

>  <i_i_glide_rotatable_bonds>  (1) 
0

>  <i_lp_mmshare_version>  (1) 
72125

>  <i_m_source_file_index>  (1) 
17

>  <i_f3d_flags>  (1) 
0

>  <num_sample>  (1) 
50

>  <b_lp_Chiralities_Consistent>  (1) 
1

>  <r_epik_Charging_Adjusted_Penalty>  (1) 
0.00011828912318149299

>  <r_epik_Ionization_Penalty>  (1) 
0.00011828912318149299

>  <r_epik_Ionization_Penalty_Charging>  (1) 
0.00011828912318149299

>  <r_epik_Ionization_Penalty_Neutral>  (1) 
0

>  <r_epik_State_Penalty>  (1) 
-0

>  <r_glide_ring_energy>  (1) 
0

>  <r_i_docking_score>  (1) 
-4.7322421100367684

>  <r_i_glide_ecoul>  (1) 
-0.84931267371474573

>  <r_i_glide_eff_state_penalty>  (1) 
-0

>  <r_i_glide_einternal>  (1) 
0

>  <r_i_glide_emodel>  (1) 
-23.936000382788905

>  <r_i_glide_emodel_strain>  (1) 
0

>  <r_i_glide_energy>  (1) 
-18.059583364092134

>  <r_i_glide_erotb>  (1) 
0

>  <r_i_glide_esite>  (1) 
0

>  <r_i_glide_evdw>  (1) 
-17.210270690377389

>  <r_i_glide_gscore>  (1) 
-4.7322421100367684

>  <r_i_glide_gscore_strain>  (1) 
0

>  <r_i_glide_hbond>  (1) 
0

>  <r_i_glide_ligand_efficiency>  (1) 
-0.67603458714810982

>  <r_i_glide_ligand_efficiency_ln>  (1) 
-1.6063769329673179

>  <r_i_glide_ligand_efficiency_sa>  (1) 
-1.2932076423882775

>  <r_i_glide_lipo>  (1) 
-1.4943316744606876

>  <r_i_glide_metal>  (1) 
-0

>  <r_i_glide_rewards>  (1) 
-2.25

>  <r_lp_Energy>  (1) 
8.1847359999999991

>  <r_lp_tautomer_probability>  (1) 
1

>  <s_epik_cmdline>  (1) 
J2VwaWtfcHl0aG9uJywgJy1waHQnLCAnMS4wJywgJy1waCcsICc3LjQnLCAnLXRuJywgJzgnLCAnLW1hJywgJzUwMCcsICctaW1hZScsICc8aW5maWxlLm1hZT4nLCAnLW9tYWUnLCAnPG91dGZpbGUubWFlPic=

>  <s_epik_input>  (1) 
W2NIXTFbY0hdbltjSF1bY0hdYzFbT0hd

>  <s_glide_docking_method>  (1) 
confgen

>  <s_i_glide_gridfile>  (1) 
gpcr_drd2_6luq_protein_autoprepared_prepared

>  <s_lp_Force_Field>  (1) 
S-OPLS

>  <s_lp_Variant>  (1) 
Pocket2Mol_16-1

>  <s_m_source_file>  (1) 
generated_generic_title2_ligand_Pocket2Mol_2026-06-23_prepared.sdf

>  <GenAI_Model>  (1) 
Pocket2Mol

>  <Protein>  (1) 
generic_title2

$$$$
Pocket2Mol_30
     RDKit          3D

  0  0  0  0  0  0  0  0  0  0999 V3000
M  V30 BEGIN CTAB
M  V30 COUNTS 20 21 0 0 1
M  V30 BEGIN ATOM
M  V30 1 C 9.345652 7.458345 -7.022000 0
M  V30 2 O 10.017735 8.674212 -6.691017 0
M  V30 3 C 11.311083 8.715087 -7.301224 0 CFG=2
M  V30 4 C 12.236058 9.544868 -6.418953 0
M  V30 5 C 11.233875 8.992056 -8.814168 0
M  V30 6 C 10.457012 6.421250 -7.123951 0
M  V30 7 C 11.772859 7.590327 -9.084455 0
M  V30 8 C 11.622559 7.244695 -7.594995 0 CFG=1
M  V30 9 H 8.576068 7.196882 -6.298868 0
M  V30 10 H 8.859065 7.576200 -7.986188 0
M  V30 11 H 13.262474 9.522986 -6.784849 0
M  V30 12 H 12.244062 9.172508 -5.394558 0
M  V30 13 H 11.915958 10.586424 -6.385025 0
M  V30 14 H 10.218195 9.137372 -9.185026 0
M  V30 15 H 11.895162 9.780521 -9.172006 0
M  V30 16 H 10.663774 5.991164 -6.143346 0
M  V30 17 H 10.202816 5.607338 -7.803646 0
M  V30 18 H 11.138664 7.000460 -9.746782 0
M  V30 19 H 12.810682 7.597393 -9.419800 0
M  V30 20 H 12.575373 6.916478 -7.185025 0
M  V30 END ATOM
M  V30 BEGIN BOND
M  V30 1 1 2 1
M  V30 2 1 3 2
M  V30 3 1 3 4 CFG=1
M  V30 4 1 5 3
M  V30 5 1 6 1
M  V30 6 1 7 5
M  V30 7 1 8 3
M  V30 8 1 8 6
M  V30 9 1 8 7
M  V30 10 1 9 1
M  V30 11 1 10 1
M  V30 12 1 11 4
M  V30 13 1 12 4
M  V30 14 1 13 4
M  V30 15 1 14 5
M  V30 16 1 15 5
M  V30 17 1 16 6
M  V30 18 1 17 6
M  V30 19 1 18 7
M  V30 20 1 19 7
M  V30 21 1 8 20 CFG=1
M  V30 END BOND
M  V30 END CTAB
M  END
>  <i_epik_Tot_Q>  (1) 
0

>  <i_epik_Tot_abs_Q>  (1) 
0

>  <i_i_glide_confnum>  (1) 
1

>  <i_i_glide_lignum>  (1) 
34

>  <i_i_glide_posenum>  (1) 
285

>  <i_i_glide_rotatable_bonds>  (1) 
0

>  <i_lp_mmshare_version>  (1) 
72125

>  <i_m_source_file_index>  (1) 
31

>  <i_f3d_flags>  (1) 
0

>  <num_sample>  (1) 
50

>  <b_lp_Chiralities_Consistent>  (1) 
1

>  <r_epik_Charging_Adjusted_Penalty>  (1) 
0

>  <r_epik_Ionization_Penalty>  (1) 
2.3587344998035955e-11

>  <r_epik_Ionization_Penalty_Charging>  (1) 
0

>  <r_epik_Ionization_Penalty_Neutral>  (1) 
2.3587344998035955e-11

>  <r_epik_State_Penalty>  (1) 
-0

>  <r_glide_ring_energy>  (1) 
0

>  <r_i_docking_score>  (1) 
-4.7301164745545226

>  <r_i_glide_ecoul>  (1) 
-0.72201770999037507

>  <r_i_glide_eff_state_penalty>  (1) 
-0

>  <r_i_glide_einternal>  (1) 
0

>  <r_i_glide_emodel>  (1) 
-18.260018395683545

>  <r_i_glide_emodel_strain>  (1) 
3.6986236295888375e-10

>  <r_i_glide_energy>  (1) 
-13.906814127582606

>  <r_i_glide_erotb>  (1) 
0

>  <r_i_glide_esite>  (1) 
0

>  <r_i_glide_evdw>  (1) 
-13.184796417592231

>  <r_i_glide_gscore>  (1) 
-4.7301164745545226

>  <r_i_glide_gscore_strain>  (1) 
0

>  <r_i_glide_hbond>  (1) 
0

>  <r_i_glide_ligand_efficiency>  (1) 
-0.59126455931931532

>  <r_i_glide_ligand_efficiency_ln>  (1) 
-1.5360306115680453

>  <r_i_glide_ligand_efficiency_sa>  (1) 
-1.1825291186386309

>  <r_i_glide_lipo>  (1) 
-1.1927973015327999

>  <r_i_glide_metal>  (1) 
-0

>  <r_i_glide_rewards>  (1) 
-2.7697766956435546

>  <r_lp_Energy>  (1) 
15.613807

>  <r_lp_tautomer_probability>  (1) 
1

>  <s_epik_cmdline>  (1) 
J2VwaWtfcHl0aG9uJywgJy1waHQnLCAnMS4wJywgJy1waCcsICc3LjQnLCAnLXRuJywgJzgnLCAnLW1hJywgJzUwMCcsICctaW1hZScsICc8aW5maWxlLm1hZT4nLCAnLW9tYWUnLCAnPG91dGZpbGUubWFlPic=

>  <s_epik_input>  (1) 
TzFbQ0gyXVtDSDJdW0NASF0oW0NAXTEyW0NIM10pW0NIMl1bQ0gyXTI=

>  <s_glide_docking_method>  (1) 
confgen

>  <s_i_glide_gridfile>  (1) 
gpcr_drd2_6luq_protein_autoprepared_prepared

>  <s_lp_Force_Field>  (1) 
S-OPLS

>  <s_lp_Variant>  (1) 
Pocket2Mol_30-1

>  <s_m_source_file>  (1) 
generated_generic_title2_ligand_Pocket2Mol_2026-06-23_prepared.sdf

>  <GenAI_Model>  (1) 
Pocket2Mol

>  <Protein>  (1) 
generic_title2

$$$$
Pocket2Mol_27
     RDKit          3D

  0  0  0  0  0  0  0  0  0  0999 V3000
M  V30 BEGIN CTAB
M  V30 COUNTS 13 13 0 0 1
M  V30 BEGIN ATOM
M  V30 1 N 10.105155 6.926068 -6.705780 0
M  V30 2 C 9.461721 7.025800 -7.920558 0
M  V30 3 C 10.017565 7.599010 -9.008073 0
M  V30 4 C 11.379496 7.447154 -6.577969 0
M  V30 5 O 9.375430 7.702666 -10.179330 0
M  V30 6 C 11.396580 8.152850 -8.917728 0
M  V30 7 O 11.961115 8.668002 -9.879837 0
M  V30 8 C 12.048891 8.042360 -7.587282 0
M  V30 9 H 8.466397 6.610793 -7.928139 0
M  V30 10 H 11.802035 7.336824 -5.587806 0
M  V30 11 H 8.440295 7.590415 -9.985014 0
M  V30 12 H 13.042526 8.440292 -7.457222 0
M  V30 13 H 9.647203 6.488943 -5.916189 0
M  V30 END ATOM
M  V30 BEGIN BOND
M  V30 1 1 2 1
M  V30 2 2 3 2
M  V30 3 1 4 1
M  V30 4 1 5 3
M  V30 5 1 6 3
M  V30 6 2 7 6
M  V30 7 2 8 4
M  V30 8 1 8 6
M  V30 9 1 9 2
M  V30 10 1 10 4
M  V30 11 1 11 5
M  V30 12 1 12 8
M  V30 13 1 13 1
M  V30 END BOND
M  V30 END CTAB
M  END
>  <i_epik_Tot_Q>  (1) 
0

>  <i_epik_Tot_abs_Q>  (1) 
0

>  <i_i_glide_confnum>  (1) 
1

>  <i_i_glide_lignum>  (1) 
31

>  <i_i_glide_posenum>  (1) 
101

>  <i_i_glide_rotatable_bonds>  (1) 
1

>  <i_lp_mmshare_version>  (1) 
72125

>  <i_m_source_file_index>  (1) 
28

>  <i_f3d_flags>  (1) 
0

>  <num_sample>  (1) 
50

>  <b_lp_Chiralities_Consistent>  (1) 
1

>  <r_epik_Charging_Adjusted_Penalty>  (1) 
0.000203171374695584

>  <r_epik_Ionization_Penalty>  (1) 
0.014901896624084464

>  <r_epik_Ionization_Penalty_Charging>  (1) 
0.000203171374695584

>  <r_epik_Ionization_Penalty_Neutral>  (1) 
0.01469872524938888

>  <r_epik_State_Penalty>  (1) 
-0

>  <r_glide_ring_energy>  (1) 
0

>  <r_i_docking_score>  (1) 
-4.7270848911808763

>  <r_i_glide_ecoul>  (1) 
-7.1078291876659279

>  <r_i_glide_eff_state_penalty>  (1) 
-0

>  <r_i_glide_einternal>  (1) 
0.68476587634233765

>  <r_i_glide_emodel>  (1) 
-26.242007802651056

>  <r_i_glide_emodel_strain>  (1) 
0.045689273119294604

>  <r_i_glide_energy>  (1) 
-19.788215554622752

>  <r_i_glide_erotb>  (1) 
0

>  <r_i_glide_esite>  (1) 
0

>  <r_i_glide_evdw>  (1) 
-12.680386366956826

>  <r_i_glide_gscore>  (1) 
-4.7270848911808763

>  <r_i_glide_gscore_strain>  (1) 
0

>  <r_i_glide_hbond>  (1) 
-0.16

>  <r_i_glide_ligand_efficiency>  (1) 
-0.59088561139760953

>  <r_i_glide_ligand_efficiency_ln>  (1) 
-1.5350461527521808

>  <r_i_glide_ligand_efficiency_sa>  (1) 
-1.1817712227952193

>  <r_i_glide_lipo>  (1) 
-0.61689119468314524

>  <r_i_glide_metal>  (1) 
-0

>  <r_i_glide_rewards>  (1) 
-2.25

>  <r_lp_Energy>  (1) 
11.500328

>  <r_lp_tautomer_probability>  (1) 
1

>  <s_epik_cmdline>  (1) 
J2VwaWtfcHl0aG9uJywgJy1waHQnLCAnMS4wJywgJy1waCcsICc3LjQnLCAnLXRuJywgJzgnLCAnLW1hJywgJzUwMCcsICctaW1hZScsICc8aW5maWxlLm1hZT4nLCAnLW9tYWUnLCAnPG91dGZpbGUubWFlPic=

>  <s_epik_input>  (1) 
W09IXWMxW2NIXW5bY0hdW2NIXWMxW09IXQ==

>  <s_glide_docking_method>  (1) 
confgen

>  <s_i_glide_gridfile>  (1) 
gpcr_drd2_6luq_protein_autoprepared_prepared

>  <s_lp_Force_Field>  (1) 
S-OPLS

>  <s_lp_Variant>  (1) 
Pocket2Mol_27-1

>  <s_m_source_file>  (1) 
generated_generic_title2_ligand_Pocket2Mol_2026-06-23_prepared.sdf

>  <GenAI_Model>  (1) 
Pocket2Mol

>  <Protein>  (1) 
generic_title2

$$$$
Pocket2Mol_7
     RDKit          3D

  0  0  0  0  0  0  0  0  0  0999 V3000
M  V30 BEGIN CTAB
M  V30 COUNTS 13 13 0 0 1
M  V30 BEGIN ATOM
M  V30 1 N 10.826074 8.790227 -6.341689 0
M  V30 2 C 11.488478 9.178399 -5.213593 0
M  V30 3 C 11.775410 8.217692 -4.384987 0
M  V30 4 C 10.740812 7.511794 -6.104670 0
M  V30 5 C 12.500360 8.390226 -3.066240 0
M  V30 6 C 11.341638 6.869213 -4.793029 0
M  V30 7 H 11.728305 10.222938 -5.074446 0
M  V30 8 H 10.252839 6.817550 -6.794097 0
M  V30 9 H 13.375410 7.742392 -3.032300 0
M  V30 10 H 12.827505 9.421066 -2.924577 0
M  V30 11 H 11.844421 8.122774 -2.237406 0
M  V30 12 H 10.575412 6.428735 -4.154016 0
M  V30 13 H 12.160387 6.181674 -5.003175 0
M  V30 END ATOM
M  V30 BEGIN BOND
M  V30 1 1 2 1
M  V30 2 2 3 2
M  V30 3 2 4 1
M  V30 4 1 5 3
M  V30 5 1 6 3
M  V30 6 1 6 4
M  V30 7 1 7 2
M  V30 8 1 8 4
M  V30 9 1 9 5
M  V30 10 1 10 5
M  V30 11 1 11 5
M  V30 12 1 12 6
M  V30 13 1 13 6
M  V30 END BOND
M  V30 END CTAB
M  END
>  <i_epik_Tot_Q>  (1) 
0

>  <i_epik_Tot_abs_Q>  (1) 
0

>  <i_i_glide_confnum>  (1) 
1

>  <i_i_glide_lignum>  (1) 
8

>  <i_i_glide_posenum>  (1) 
178

>  <i_i_glide_rotatable_bonds>  (1) 
0

>  <i_lp_mmshare_version>  (1) 
72125

>  <i_m_source_file_index>  (1) 
8

>  <i_f3d_flags>  (1) 
0

>  <num_sample>  (1) 
50

>  <b_lp_Chiralities_Consistent>  (1) 
1

>  <r_epik_Charging_Adjusted_Penalty>  (1) 
0

>  <r_epik_Ionization_Penalty>  (1) 
0

>  <r_epik_Ionization_Penalty_Charging>  (1) 
0

>  <r_epik_Ionization_Penalty_Neutral>  (1) 
0

>  <r_epik_State_Penalty>  (1) 
-0

>  <r_glide_ring_energy>  (1) 
0

>  <r_i_docking_score>  (1) 
-4.7261355719837734

>  <r_i_glide_ecoul>  (1) 
-0.73239216238574101

>  <r_i_glide_eff_state_penalty>  (1) 
-0

>  <r_i_glide_einternal>  (1) 
0

>  <r_i_glide_emodel>  (1) 
-21.496855448942544

>  <r_i_glide_emodel_strain>  (1) 
0

>  <r_i_glide_energy>  (1) 
-16.27103551797622

>  <r_i_glide_erotb>  (1) 
0

>  <r_i_glide_esite>  (1) 
0

>  <r_i_glide_evdw>  (1) 
-15.538643355590478

>  <r_i_glide_gscore>  (1) 
-4.7261355719837734

>  <r_i_glide_gscore_strain>  (1) 
0

>  <r_i_glide_hbond>  (1) 
0

>  <r_i_glide_ligand_efficiency>  (1) 
-0.78768926199729561

>  <r_i_glide_ligand_efficiency_ln>  (1) 
-1.6928878093106603

>  <r_i_glide_ligand_efficiency_sa>  (1) 
-1.4313263787280364

>  <r_i_glide_lipo>  (1) 
-1.0756865427226239

>  <r_i_glide_metal>  (1) 
-0

>  <r_i_glide_rewards>  (1) 
-2.7636580371237649

>  <r_lp_Energy>  (1) 
-3.9959819999999997

>  <r_lp_tautomer_probability>  (1) 
1

>  <s_epik_Chemistry_Notes>  (1) 
This compound has an imine and may undergo hydrolysis.

>  <s_epik_cmdline>  (1) 
J2VwaWtfcHl0aG9uJywgJy1waHQnLCAnMS4wJywgJy1waCcsICc3LjQnLCAnLXRuJywgJzgnLCAnLW1hJywgJzUwMCcsICctaW1hZScsICc8aW5maWxlLm1hZT4nLCAnLW9tYWUnLCAnPG91dGZpbGUubWFlPic=

>  <s_epik_input>  (1) 
W0NIMl0xW0NIXT1OW0NIXT1DMVtDSDNd

>  <s_glide_docking_method>  (1) 
confgen

>  <s_i_glide_gridfile>  (1) 
gpcr_drd2_6luq_protein_autoprepared_prepared

>  <s_lp_Force_Field>  (1) 
S-OPLS

>  <s_lp_Variant>  (1) 
Pocket2Mol_7-1

>  <s_m_source_file>  (1) 
generated_generic_title2_ligand_Pocket2Mol_2026-06-23_prepared.sdf

>  <GenAI_Model>  (1) 
Pocket2Mol

>  <Protein>  (1) 
generic_title2

$$$$
Pocket2Mol_29
     RDKit          3D

  0  0  0  0  0  0  0  0  0  0999 V3000
M  V30 BEGIN CTAB
M  V30 COUNTS 14 14 0 0 1
M  V30 BEGIN ATOM
M  V30 1 N 10.965914 7.507841 -7.085403 0
M  V30 2 C 11.375410 8.790227 -7.131117 0
M  V30 3 C 11.790742 9.482565 -5.989610 0
M  V30 4 C 11.775409 8.781540 -4.785029 0
M  V30 5 O 12.180171 9.383436 -3.610004 0
M  V30 6 C 10.975410 6.951831 -5.865008 0
M  V30 7 N 11.375410 7.491642 -4.702272 0
M  V30 8 C 12.327836 8.582744 -2.439473 0
M  V30 9 H 11.371447 9.268897 -8.098934 0
M  V30 10 H 12.115186 10.510858 -6.039592 0
M  V30 11 H 10.631753 5.932369 -5.813163 0
M  V30 12 H 12.725897 9.190227 -1.628290 0
M  V30 13 H 11.375440 8.176115 -2.100412 0
M  V30 14 H 13.025604 7.761011 -2.606226 0
M  V30 END ATOM
M  V30 BEGIN BOND
M  V30 1 1 2 1
M  V30 2 2 3 2
M  V30 3 1 4 3
M  V30 4 1 5 4
M  V30 5 2 6 1
M  V30 6 2 7 4
M  V30 7 1 7 6
M  V30 8 1 8 5
M  V30 9 1 9 2
M  V30 10 1 10 3
M  V30 11 1 11 6
M  V30 12 1 12 8
M  V30 13 1 13 8
M  V30 14 1 14 8
M  V30 END BOND
M  V30 END CTAB
M  END
>  <i_epik_Tot_Q>  (1) 
0

>  <i_epik_Tot_abs_Q>  (1) 
0

>  <i_i_glide_confnum>  (1) 
1

>  <i_i_glide_lignum>  (1) 
33

>  <i_i_glide_posenum>  (1) 
71

>  <i_i_glide_rotatable_bonds>  (1) 
1

>  <i_lp_mmshare_version>  (1) 
72125

>  <i_m_source_file_index>  (1) 
30

>  <i_f3d_flags>  (1) 
0

>  <num_sample>  (1) 
50

>  <b_lp_Chiralities_Consistent>  (1) 
1

>  <r_epik_Charging_Adjusted_Penalty>  (1) 
0

>  <r_epik_Ionization_Penalty>  (1) 
8.6638422661064201e-06

>  <r_epik_Ionization_Penalty_Charging>  (1) 
0

>  <r_epik_Ionization_Penalty_Neutral>  (1) 
8.6638422661064201e-06

>  <r_epik_State_Penalty>  (1) 
-0

>  <r_glide_ring_energy>  (1) 
0

>  <r_i_docking_score>  (1) 
-4.7228026759211899

>  <r_i_glide_ecoul>  (1) 
-0.24303198928569628

>  <r_i_glide_eff_state_penalty>  (1) 
-0

>  <r_i_glide_einternal>  (1) 
0.064024518661524477

>  <r_i_glide_emodel>  (1) 
-24.135999416153773

>  <r_i_glide_emodel_strain>  (1) 
0

>  <r_i_glide_energy>  (1) 
-18.301609849347688

>  <r_i_glide_erotb>  (1) 
0

>  <r_i_glide_esite>  (1) 
0

>  <r_i_glide_evdw>  (1) 
-18.058577860061991

>  <r_i_glide_gscore>  (1) 
-4.7228026759211899

>  <r_i_glide_gscore_strain>  (1) 
0

>  <r_i_glide_hbond>  (1) 
0

>  <r_i_glide_ligand_efficiency>  (1) 
-0.59035033449014873

>  <r_i_glide_ligand_efficiency_ln>  (1) 
-1.5336555709854134

>  <r_i_glide_ligand_efficiency_sa>  (1) 
-1.1807006689802977

>  <r_i_glide_lipo>  (1) 
-1.1203294857721036

>  <r_i_glide_metal>  (1) 
-0

>  <r_i_glide_rewards>  (1) 
-2.6630894987531319

>  <r_lp_Energy>  (1) 
14.393509

>  <r_lp_tautomer_probability>  (1) 
1

>  <s_epik_cmdline>  (1) 
J2VwaWtfcHl0aG9uJywgJy1waHQnLCAnMS4wJywgJy1waCcsICc3LjQnLCAnLXRuJywgJzgnLCAnLW1hJywgJzUwMCcsICctaW1hZScsICc8aW5maWxlLm1hZT4nLCAnLW9tYWUnLCAnPG91dGZpbGUubWFlPic=

>  <s_epik_input>  (1) 
bjFbY0hdbltjSF1bY0hdYzFPW0NIM10=

>  <s_glide_docking_method>  (1) 
confgen

>  <s_i_glide_gridfile>  (1) 
gpcr_drd2_6luq_protein_autoprepared_prepared

>  <s_lp_Force_Field>  (1) 
S-OPLS

>  <s_lp_Variant>  (1) 
Pocket2Mol_29-1

>  <s_m_source_file>  (1) 
generated_generic_title2_ligand_Pocket2Mol_2026-06-23_prepared.sdf

>  <GenAI_Model>  (1) 
Pocket2Mol

>  <Protein>  (1) 
generic_title2

$$$$
Pocket2Mol_9
     RDKit          3D

  0  0  0  0  0  0  0  0  0  0999 V3000
M  V30 BEGIN CTAB
M  V30 COUNTS 12 12 0 0 1
M  V30 BEGIN ATOM
M  V30 1 O 12.426877 7.961554 -1.985578 0
M  V30 2 C 12.175681 9.023260 -2.804491 0
M  V30 3 C 12.175293 6.853151 -2.726753 0
M  V30 4 C 11.775410 8.614118 -4.049237 0
M  V30 5 C 11.410151 9.479893 -5.224423 0
M  V30 6 C 11.775410 7.190413 -3.985642 0
M  V30 7 H 12.329542 9.990771 -2.352502 0
M  V30 8 H 12.325178 5.913321 -2.215028 0
M  V30 9 H 10.681845 8.974912 -5.859653 0
M  V30 10 H 10.975374 10.421458 -4.887087 0
M  V30 11 H 12.295595 9.701449 -5.820486 0
M  V30 12 H 11.513158 6.495912 -4.771102 0
M  V30 END ATOM
M  V30 BEGIN BOND
M  V30 1 1 2 1
M  V30 2 1 3 1
M  V30 3 2 4 2
M  V30 4 1 5 4
M  V30 5 2 6 3
M  V30 6 1 6 4
M  V30 7 1 7 2
M  V30 8 1 8 3
M  V30 9 1 9 5
M  V30 10 1 10 5
M  V30 11 1 11 5
M  V30 12 1 12 6
M  V30 END BOND
M  V30 END CTAB
M  END
>  <i_epik_Tot_Q>  (1) 
0

>  <i_epik_Tot_abs_Q>  (1) 
0

>  <i_i_glide_confnum>  (1) 
1

>  <i_i_glide_lignum>  (1) 
12

>  <i_i_glide_posenum>  (1) 
335

>  <i_i_glide_rotatable_bonds>  (1) 
0

>  <i_lp_mmshare_version>  (1) 
72125

>  <i_m_source_file_index>  (1) 
10

>  <i_f3d_flags>  (1) 
0

>  <num_sample>  (1) 
50

>  <b_lp_Chiralities_Consistent>  (1) 
1

>  <r_epik_Charging_Adjusted_Penalty>  (1) 
0

>  <r_epik_Ionization_Penalty>  (1) 
0

>  <r_epik_Ionization_Penalty_Charging>  (1) 
0

>  <r_epik_Ionization_Penalty_Neutral>  (1) 
0

>  <r_epik_State_Penalty>  (1) 
-0

>  <r_glide_ring_energy>  (1) 
0

>  <r_i_docking_score>  (1) 
-4.7227966726077169

>  <r_i_glide_ecoul>  (1) 
-1.1066919003855373

>  <r_i_glide_eff_state_penalty>  (1) 
-0

>  <r_i_glide_einternal>  (1) 
0

>  <r_i_glide_emodel>  (1) 
-19.409898833366757

>  <r_i_glide_emodel_strain>  (1) 
0

>  <r_i_glide_energy>  (1) 
-15.015961098227766

>  <r_i_glide_erotb>  (1) 
0

>  <r_i_glide_esite>  (1) 
0

>  <r_i_glide_evdw>  (1) 
-13.909269197842228

>  <r_i_glide_gscore>  (1) 
-4.7227966726077169

>  <r_i_glide_gscore_strain>  (1) 
0

>  <r_i_glide_hbond>  (1) 
0

>  <r_i_glide_ligand_efficiency>  (1) 
-0.78713277876795285

>  <r_i_glide_ligand_efficiency_ln>  (1) 
-1.6916918254113096

>  <r_i_glide_ligand_efficiency_sa>  (1) 
-1.430315181592432

>  <r_i_glide_lipo>  (1) 
-1.4184278982680851

>  <r_i_glide_metal>  (1) 
-0

>  <r_i_glide_rewards>  (1) 
-2.4429015293896894

>  <r_lp_Energy>  (1) 
-1.206345

>  <r_lp_tautomer_probability>  (1) 
1

>  <s_epik_cmdline>  (1) 
J2VwaWtfcHl0aG9uJywgJy1waHQnLCAnMS4wJywgJy1waCcsICc3LjQnLCAnLXRuJywgJzgnLCAnLW1hJywgJzUwMCcsICctaW1hZScsICc8aW5maWxlLm1hZT4nLCAnLW9tYWUnLCAnPG91dGZpbGUubWFlPic=

>  <s_epik_input>  (1) 
W2NIXTFbY0hdb1tjSF1jMVtDSDNd

>  <s_glide_docking_method>  (1) 
confgen

>  <s_i_glide_gridfile>  (1) 
gpcr_drd2_6luq_protein_autoprepared_prepared

>  <s_lp_Force_Field>  (1) 
S-OPLS

>  <s_lp_Variant>  (1) 
Pocket2Mol_9-1

>  <s_m_source_file>  (1) 
generated_generic_title2_ligand_Pocket2Mol_2026-06-23_prepared.sdf

>  <GenAI_Model>  (1) 
Pocket2Mol

>  <Protein>  (1) 
generic_title2

$$$$
Pocket2Mol_39
     RDKit          3D

  0  0  0  0  0  0  0  0  0  0999 V3000
M  V30 BEGIN CTAB
M  V30 COUNTS 14 14 0 0 1
M  V30 BEGIN ATOM
M  V30 1 C 11.203480 8.337580 -6.874346 0
M  V30 2 O 11.360435 9.451674 -6.008011 0
M  V30 3 C 11.757985 9.163060 -4.723200 0
M  V30 4 C 10.559874 7.176496 -6.118899 0
M  V30 5 O 11.365383 6.847996 -4.997556 0
M  V30 6 C 11.775410 7.906449 -4.215504 0
M  V30 7 C 12.232957 7.592909 -2.753840 0
M  V30 8 O 12.210795 6.390227 -2.418528 0 CHG=-1
M  V30 9 O 12.575413 8.576864 -2.063586 0
M  V30 10 H 12.177421 8.044645 -7.266917 0
M  V30 11 H 10.586623 8.629285 -7.724543 0
M  V30 12 H 12.055701 10.042700 -4.178063 0
M  V30 13 H 10.465662 6.301397 -6.762121 0
M  V30 14 H 9.556021 7.441794 -5.785543 0
M  V30 END ATOM
M  V30 BEGIN BOND
M  V30 1 1 2 1
M  V30 2 1 3 2
M  V30 3 1 4 1
M  V30 4 1 5 4
M  V30 5 2 6 3
M  V30 6 1 6 5
M  V30 7 1 7 6
M  V30 8 1 8 7
M  V30 9 2 9 7
M  V30 10 1 10 1
M  V30 11 1 11 1
M  V30 12 1 12 3
M  V30 13 1 13 4
M  V30 14 1 14 4
M  V30 END BOND
M  V30 END CTAB
M  END
>  <i_epik_Tot_Q>  (1) 
-1

>  <i_epik_Tot_abs_Q>  (1) 
1

>  <i_i_glide_confnum>  (1) 
2

>  <i_i_glide_lignum>  (1) 
44

>  <i_i_glide_posenum>  (1) 
133

>  <i_i_glide_rotatable_bonds>  (1) 
1

>  <i_lp_mmshare_version>  (1) 
72125

>  <i_m_source_file_index>  (1) 
40

>  <i_f3d_flags>  (1) 
0

>  <num_sample>  (1) 
50

>  <b_lp_Chiralities_Consistent>  (1) 
1

>  <r_epik_Charging_Adjusted_Penalty>  (1) 
1.9393830553820406e-05

>  <r_epik_Ionization_Penalty>  (1) 
1.9393830553820406e-05

>  <r_epik_Ionization_Penalty_Charging>  (1) 
1.9393830553820406e-05

>  <r_epik_Ionization_Penalty_Neutral>  (1) 
0

>  <r_epik_State_Penalty>  (1) 
-0

>  <r_glide_ring_energy>  (1) 
0.00027798022993746121

>  <r_i_docking_score>  (1) 
-4.7082705806925675

>  <r_i_glide_ecoul>  (1) 
0.55375574415337392

>  <r_i_glide_eff_state_penalty>  (1) 
-0

>  <r_i_glide_einternal>  (1) 
0.0024669928746274827

>  <r_i_glide_emodel>  (1) 
-23.118610297330559

>  <r_i_glide_emodel_strain>  (1) 
0

>  <r_i_glide_energy>  (1) 
-16.20208035096886

>  <r_i_glide_erotb>  (1) 
0

>  <r_i_glide_esite>  (1) 
0

>  <r_i_glide_evdw>  (1) 
-16.755836095122234

>  <r_i_glide_gscore>  (1) 
-4.7082705806925675

>  <r_i_glide_gscore_strain>  (1) 
0

>  <r_i_glide_hbond>  (1) 
0

>  <r_i_glide_ligand_efficiency>  (1) 
-0.5231411756325075

>  <r_i_glide_ligand_efficiency_ln>  (1) 
-1.4726117815018431

>  <r_i_glide_ligand_efficiency_sa>  (1) 
-1.088177496605534

>  <r_i_glide_lipo>  (1) 
-0.91268197541846519

>  <r_i_glide_metal>  (1) 
-0

>  <r_i_glide_rewards>  (1) 
-3.040860162140997

>  <r_lp_Energy>  (1) 
18.695968999999998

>  <r_lp_tautomer_probability>  (1) 
1

>  <s_epik_cmdline>  (1) 
J2VwaWtfcHl0aG9uJywgJy1waHQnLCAnMS4wJywgJy1waCcsICc3LjQnLCAnLXRuJywgJzgnLCAnLW1hJywgJzUwMCcsICctaW1hZScsICc8aW5maWxlLm1hZT4nLCAnLW9tYWUnLCAnPG91dGZpbGUubWFlPic=

>  <s_epik_input>  (1) 
TzFbQ0gyXVtDSDJdT1tDSF09QzFDKD1PKVtPSF0=

>  <s_glide_docking_method>  (1) 
confgen

>  <s_i_glide_gridfile>  (1) 
gpcr_drd2_6luq_protein_autoprepared_prepared

>  <s_lp_Force_Field>  (1) 
S-OPLS

>  <s_lp_Variant>  (1) 
Pocket2Mol_39-1

>  <s_m_source_file>  (1) 
generated_generic_title2_ligand_Pocket2Mol_2026-06-23_prepared.sdf

>  <GenAI_Model>  (1) 
Pocket2Mol

>  <Protein>  (1) 
generic_title2

$$$$
Pocket2Mol_15
     RDKit          3D

  0  0  0  0  0  0  0  0  0  0999 V3000
M  V30 BEGIN CTAB
M  V30 COUNTS 19 19 0 0 1
M  V30 BEGIN ATOM
M  V30 1 C 11.892279 8.416665 -9.339118 0
M  V30 2 O 12.182143 7.990227 -8.014212 0
M  V30 3 C 10.973910 7.828576 -7.269881 0
M  V30 4 C 10.947440 6.390563 -6.735308 0
M  V30 5 C 10.975410 8.843382 -6.119479 0
M  V30 6 C 10.498334 7.872699 -9.611616 0
M  V30 7 C 9.831153 8.070421 -8.268240 0
M  V30 8 H 11.890096 9.507339 -9.371335 0
M  V30 9 H 12.635475 8.054842 -10.049665 0
M  V30 10 H 10.040593 6.203102 -6.159073 0
M  V30 11 H 11.797465 6.188506 -6.084603 0
M  V30 12 H 10.975410 5.664593 -7.548492 0
M  V30 13 H 10.028196 8.808057 -5.585026 0
M  V30 14 H 11.775392 8.637713 -5.408055 0
M  V30 15 H 11.113995 9.861353 -6.482470 0
M  V30 16 H 9.984674 8.389057 -10.422984 0
M  V30 17 H 10.546150 6.810725 -9.855154 0
M  V30 18 H 8.977624 7.406229 -8.120643 0
M  V30 19 H 9.455087 9.091185 -8.196778 0
M  V30 END ATOM
M  V30 BEGIN BOND
M  V30 1 1 2 1
M  V30 2 1 3 2
M  V30 3 1 4 3
M  V30 4 1 5 3
M  V30 5 1 6 1
M  V30 6 1 7 3
M  V30 7 1 7 6
M  V30 8 1 8 1
M  V30 9 1 9 1
M  V30 10 1 10 4
M  V30 11 1 11 4
M  V30 12 1 12 4
M  V30 13 1 13 5
M  V30 14 1 14 5
M  V30 15 1 15 5
M  V30 16 1 16 6
M  V30 17 1 17 6
M  V30 18 1 18 7
M  V30 19 1 19 7
M  V30 END BOND
M  V30 END CTAB
M  END
>  <i_epik_Tot_Q>  (1) 
0

>  <i_epik_Tot_abs_Q>  (1) 
0

>  <i_i_glide_confnum>  (1) 
3

>  <i_i_glide_lignum>  (1) 
18

>  <i_i_glide_posenum>  (1) 
282

>  <i_i_glide_rotatable_bonds>  (1) 
0

>  <i_lp_mmshare_version>  (1) 
72125

>  <i_m_source_file_index>  (1) 
16

>  <i_f3d_flags>  (1) 
0

>  <num_sample>  (1) 
50

>  <b_lp_Chiralities_Consistent>  (1) 
1

>  <r_epik_Charging_Adjusted_Penalty>  (1) 
0

>  <r_epik_Ionization_Penalty>  (1) 
1.3889264151150229e-11

>  <r_epik_Ionization_Penalty_Charging>  (1) 
0

>  <r_epik_Ionization_Penalty_Neutral>  (1) 
1.3889264151150229e-11

>  <r_epik_State_Penalty>  (1) 
-0

>  <r_glide_ring_energy>  (1) 
0.26153915213888035

>  <r_i_docking_score>  (1) 
-4.704828577244113

>  <r_i_glide_ecoul>  (1) 
-0.50429620178524615

>  <r_i_glide_eff_state_penalty>  (1) 
-0

>  <r_i_glide_einternal>  (1) 
0

>  <r_i_glide_emodel>  (1) 
-22.072354240366767

>  <r_i_glide_emodel_strain>  (1) 
1.119690651307792e-08

>  <r_i_glide_energy>  (1) 
-17.11927984916737

>  <r_i_glide_erotb>  (1) 
0

>  <r_i_glide_esite>  (1) 
0

>  <r_i_glide_evdw>  (1) 
-16.614983647382125

>  <r_i_glide_gscore>  (1) 
-4.704828577244113

>  <r_i_glide_gscore_strain>  (1) 
0

>  <r_i_glide_hbond>  (1) 
0

>  <r_i_glide_ligand_efficiency>  (1) 
-0.67211836817773041

>  <r_i_glide_ligand_efficiency_ln>  (1) 
-1.5970713087610104

>  <r_i_glide_ligand_efficiency_sa>  (1) 
-1.2857161850012739

>  <r_i_glide_lipo>  (1) 
-1.0122267635944793

>  <r_i_glide_metal>  (1) 
-0

>  <r_i_glide_rewards>  (1) 
-2.7862082010127405

>  <r_lp_Energy>  (1) 
0.043719999999999995

>  <r_lp_tautomer_probability>  (1) 
1

>  <s_epik_cmdline>  (1) 
J2VwaWtfcHl0aG9uJywgJy1waHQnLCAnMS4wJywgJy1waCcsICc3LjQnLCAnLXRuJywgJzgnLCAnLW1hJywgJzUwMCcsICctaW1hZScsICc8aW5maWxlLm1hZT4nLCAnLW9tYWUnLCAnPG91dGZpbGUubWFlPic=

>  <s_epik_input>  (1) 
W0NIMl0xW0NIMl1bQ0gyXU9DMShbQ0gzXSlbQ0gzXQ==

>  <s_glide_docking_method>  (1) 
confgen

>  <s_i_glide_gridfile>  (1) 
gpcr_drd2_6luq_protein_autoprepared_prepared

>  <s_lp_Force_Field>  (1) 
S-OPLS

>  <s_lp_Variant>  (1) 
Pocket2Mol_15-1

>  <s_m_source_file>  (1) 
generated_generic_title2_ligand_Pocket2Mol_2026-06-23_prepared.sdf

>  <GenAI_Model>  (1) 
Pocket2Mol

>  <Protein>  (1) 
generic_title2

$$$$
Pocket2Mol_9
     RDKit          3D

  0  0  0  0  0  0  0  0  0  0999 V3000
M  V30 BEGIN CTAB
M  V30 COUNTS 12 12 0 0 1
M  V30 BEGIN ATOM
M  V30 1 O 12.457208 9.433955 -3.180243 0
M  V30 2 C 11.969498 8.773310 -4.265336 0
M  V30 3 C 12.575352 8.502484 -2.198946 0
M  V30 4 C 11.775413 7.442550 -3.996313 0
M  V30 5 C 11.248818 6.390228 -4.929545 0
M  V30 6 C 12.176556 7.276775 -2.641282 0
M  V30 7 H 11.816026 9.386810 -5.141090 0
M  V30 8 H 12.954292 8.873357 -1.257596 0
M  V30 9 H 10.774690 5.591527 -4.361998 0
M  V30 10 H 10.504158 6.815603 -5.603204 0
M  V30 11 H 12.054960 5.962502 -5.526096 0
M  V30 12 H 12.170817 6.366016 -2.059752 0
M  V30 END ATOM
M  V30 BEGIN BOND
M  V30 1 1 2 1
M  V30 2 1 3 1
M  V30 3 2 4 2
M  V30 4 1 5 4
M  V30 5 2 6 3
M  V30 6 1 6 4
M  V30 7 1 7 2
M  V30 8 1 8 3
M  V30 9 1 9 5
M  V30 10 1 10 5
M  V30 11 1 11 5
M  V30 12 1 12 6
M  V30 END BOND
M  V30 END CTAB
M  END
>  <i_epik_Tot_Q>  (1) 
0

>  <i_epik_Tot_abs_Q>  (1) 
0

>  <i_i_glide_confnum>  (1) 
1

>  <i_i_glide_lignum>  (1) 
12

>  <i_i_glide_posenum>  (1) 
29

>  <i_i_glide_rotatable_bonds>  (1) 
0

>  <i_lp_mmshare_version>  (1) 
72125

>  <i_m_source_file_index>  (1) 
10

>  <i_f3d_flags>  (1) 
0

>  <num_sample>  (1) 
50

>  <b_lp_Chiralities_Consistent>  (1) 
1

>  <r_epik_Charging_Adjusted_Penalty>  (1) 
0

>  <r_epik_Ionization_Penalty>  (1) 
0

>  <r_epik_Ionization_Penalty_Charging>  (1) 
0

>  <r_epik_Ionization_Penalty_Neutral>  (1) 
0

>  <r_epik_State_Penalty>  (1) 
-0

>  <r_glide_ring_energy>  (1) 
0

>  <r_i_docking_score>  (1) 
-4.7018447600810092

>  <r_i_glide_ecoul>  (1) 
-1.0643570328843777

>  <r_i_glide_eff_state_penalty>  (1) 
-0

>  <r_i_glide_einternal>  (1) 
0

>  <r_i_glide_emodel>  (1) 
-18.995683553041054

>  <r_i_glide_emodel_strain>  (1) 
0

>  <r_i_glide_energy>  (1) 
-14.621238801711504

>  <r_i_glide_erotb>  (1) 
0

>  <r_i_glide_esite>  (1) 
0

>  <r_i_glide_evdw>  (1) 
-13.556881768827127

>  <r_i_glide_gscore>  (1) 
-4.7018447600810092

>  <r_i_glide_gscore_strain>  (1) 
0

>  <r_i_glide_hbond>  (1) 
0

>  <r_i_glide_ligand_efficiency>  (1) 
-0.7836407933468349

>  <r_i_glide_ligand_efficiency_ln>  (1) 
-1.684186912198818

>  <r_i_glide_ligand_efficiency_sa>  (1) 
-1.4239698229738489

>  <r_i_glide_lipo>  (1) 
-1.4149067360929488

>  <r_i_glide_metal>  (1) 
-0

>  <r_i_glide_rewards>  (1) 
-2.4494403806140479

>  <r_lp_Energy>  (1) 
-1.206345

>  <r_lp_tautomer_probability>  (1) 
1

>  <s_epik_cmdline>  (1) 
J2VwaWtfcHl0aG9uJywgJy1waHQnLCAnMS4wJywgJy1waCcsICc3LjQnLCAnLXRuJywgJzgnLCAnLW1hJywgJzUwMCcsICctaW1hZScsICc8aW5maWxlLm1hZT4nLCAnLW9tYWUnLCAnPG91dGZpbGUubWFlPic=

>  <s_epik_input>  (1) 
W2NIXTFbY0hdb1tjSF1jMVtDSDNd

>  <s_glide_docking_method>  (1) 
confgen

>  <s_i_glide_gridfile>  (1) 
gpcr_drd2_6luq_protein_autoprepared_prepared

>  <s_lp_Force_Field>  (1) 
S-OPLS

>  <s_lp_Variant>  (1) 
Pocket2Mol_9-1

>  <s_m_source_file>  (1) 
generated_generic_title2_ligand_Pocket2Mol_2026-06-23_prepared.sdf

>  <GenAI_Model>  (1) 
Pocket2Mol

>  <Protein>  (1) 
generic_title2

$$$$
Pocket2Mol_39
     RDKit          3D

  0  0  0  0  0  0  0  0  0  0999 V3000
M  V30 BEGIN CTAB
M  V30 COUNTS 14 14 0 0 1
M  V30 BEGIN ATOM
M  V30 1 C 9.725706 6.588870 -8.091004 0
M  V30 2 O 10.309698 6.099008 -6.894525 0
M  V30 3 C 10.797802 7.063544 -6.044533 0
M  V30 4 C 10.640712 7.658597 -8.684942 0
M  V30 5 O 10.803695 8.704864 -7.743526 0
M  V30 6 C 11.035355 8.339796 -6.435545 0
M  V30 7 C 11.581553 9.438346 -5.473190 0
M  V30 8 O 11.775054 10.560783 -5.985025 0 CHG=-1
M  V30 9 O 11.775971 9.087765 -4.286797 0
M  V30 10 H 8.745744 7.005924 -7.856354 0
M  V30 11 H 9.570244 5.771648 -8.797401 0
M  V30 12 H 10.955976 6.687870 -5.042915 0
M  V30 13 H 10.211130 8.079840 -9.594008 0
M  V30 14 H 11.619787 7.249643 -8.940750 0
M  V30 END ATOM
M  V30 BEGIN BOND
M  V30 1 1 2 1
M  V30 2 1 3 2
M  V30 3 1 4 1
M  V30 4 1 5 4
M  V30 5 2 6 3
M  V30 6 1 6 5
M  V30 7 1 7 6
M  V30 8 1 8 7
M  V30 9 2 9 7
M  V30 10 1 10 1
M  V30 11 1 11 1
M  V30 12 1 12 3
M  V30 13 1 13 4
M  V30 14 1 14 4
M  V30 END BOND
M  V30 END CTAB
M  END
>  <i_epik_Tot_Q>  (1) 
-1

>  <i_epik_Tot_abs_Q>  (1) 
1

>  <i_i_glide_confnum>  (1) 
2

>  <i_i_glide_lignum>  (1) 
44

>  <i_i_glide_posenum>  (1) 
77

>  <i_i_glide_rotatable_bonds>  (1) 
1

>  <i_lp_mmshare_version>  (1) 
72125

>  <i_m_source_file_index>  (1) 
40

>  <i_f3d_flags>  (1) 
0

>  <num_sample>  (1) 
50

>  <b_lp_Chiralities_Consistent>  (1) 
1

>  <r_epik_Charging_Adjusted_Penalty>  (1) 
1.9393830553820406e-05

>  <r_epik_Ionization_Penalty>  (1) 
1.9393830553820406e-05

>  <r_epik_Ionization_Penalty_Charging>  (1) 
1.9393830553820406e-05

>  <r_epik_Ionization_Penalty_Neutral>  (1) 
0

>  <r_epik_State_Penalty>  (1) 
-0

>  <r_glide_ring_energy>  (1) 
0.00027798022993746121

>  <r_i_docking_score>  (1) 
-4.6994477583817469

>  <r_i_glide_ecoul>  (1) 
-1.0314843495910724

>  <r_i_glide_eff_state_penalty>  (1) 
-0

>  <r_i_glide_einternal>  (1) 
0.0013434693433682643

>  <r_i_glide_emodel>  (1) 
-23.9818536884747

>  <r_i_glide_emodel_strain>  (1) 
0

>  <r_i_glide_energy>  (1) 
-17.077725168549506

>  <r_i_glide_erotb>  (1) 
0

>  <r_i_glide_esite>  (1) 
0

>  <r_i_glide_evdw>  (1) 
-16.046240818958434

>  <r_i_glide_gscore>  (1) 
-4.6994477583817469

>  <r_i_glide_gscore_strain>  (1) 
0

>  <r_i_glide_hbond>  (1) 
0

>  <r_i_glide_ligand_efficiency>  (1) 
-0.5221608620424163

>  <r_i_glide_ligand_efficiency_ln>  (1) 
-1.4698522561393266

>  <r_i_glide_ligand_efficiency_sa>  (1) 
-1.0861383621652674

>  <r_i_glide_lipo>  (1) 
-0.5318692556979856

>  <r_i_glide_metal>  (1) 
-0

>  <r_i_glide_rewards>  (1) 
-3.210543809297179

>  <r_lp_Energy>  (1) 
18.695968999999998

>  <r_lp_tautomer_probability>  (1) 
1

>  <s_epik_cmdline>  (1) 
J2VwaWtfcHl0aG9uJywgJy1waHQnLCAnMS4wJywgJy1waCcsICc3LjQnLCAnLXRuJywgJzgnLCAnLW1hJywgJzUwMCcsICctaW1hZScsICc8aW5maWxlLm1hZT4nLCAnLW9tYWUnLCAnPG91dGZpbGUubWFlPic=

>  <s_epik_input>  (1) 
TzFbQ0gyXVtDSDJdT1tDSF09QzFDKD1PKVtPSF0=

>  <s_glide_docking_method>  (1) 
confgen

>  <s_i_glide_gridfile>  (1) 
gpcr_drd2_6luq_protein_autoprepared_prepared

>  <s_lp_Force_Field>  (1) 
S-OPLS

>  <s_lp_Variant>  (1) 
Pocket2Mol_39-1

>  <s_m_source_file>  (1) 
generated_generic_title2_ligand_Pocket2Mol_2026-06-23_prepared.sdf

>  <GenAI_Model>  (1) 
Pocket2Mol

>  <Protein>  (1) 
generic_title2

$$$$
Pocket2Mol_15
     RDKit          3D

  0  0  0  0  0  0  0  0  0  0999 V3000
M  V30 BEGIN CTAB
M  V30 COUNTS 19 19 0 0 1
M  V30 BEGIN ATOM
M  V30 1 C 9.375688 8.347866 -7.651689 0
M  V30 2 O 9.812013 8.790227 -6.374172 0
M  V30 3 C 11.101694 8.269446 -6.098152 0
M  V30 4 C 11.757311 9.197119 -5.060457 0
M  V30 5 C 10.974043 6.825488 -5.566814 0
M  V30 6 C 10.643921 8.027244 -8.445675 0
M  V30 7 C 11.771700 8.336002 -7.475749 0
M  V30 8 H 8.754260 7.458531 -7.539819 0
M  V30 9 H 8.775386 9.124402 -8.126379 0
M  V30 10 H 12.756758 8.863835 -4.785021 0
M  V30 11 H 11.166473 9.237138 -4.145775 0
M  V30 12 H 11.836238 10.217633 -5.436709 0
M  V30 13 H 11.945193 6.390227 -5.335037 0
M  V30 14 H 10.376005 6.790267 -4.656937 0
M  V30 15 H 10.491839 6.165638 -6.288160 0
M  V30 16 H 10.652438 6.973676 -8.727781 0
M  V30 17 H 10.719278 8.619118 -9.358399 0
M  V30 18 H 12.137032 9.344531 -7.666977 0
M  V30 19 H 12.613930 7.652999 -7.585025 0
M  V30 END ATOM
M  V30 BEGIN BOND
M  V30 1 1 2 1
M  V30 2 1 3 2
M  V30 3 1 4 3
M  V30 4 1 5 3
M  V30 5 1 6 1
M  V30 6 1 7 3
M  V30 7 1 7 6
M  V30 8 1 8 1
M  V30 9 1 9 1
M  V30 10 1 10 4
M  V30 11 1 11 4
M  V30 12 1 12 4
M  V30 13 1 13 5
M  V30 14 1 14 5
M  V30 15 1 15 5
M  V30 16 1 16 6
M  V30 17 1 17 6
M  V30 18 1 18 7
M  V30 19 1 19 7
M  V30 END BOND
M  V30 END CTAB
M  END
>  <i_epik_Tot_Q>  (1) 
0

>  <i_epik_Tot_abs_Q>  (1) 
0

>  <i_i_glide_confnum>  (1) 
4

>  <i_i_glide_lignum>  (1) 
18

>  <i_i_glide_posenum>  (1) 
352

>  <i_i_glide_rotatable_bonds>  (1) 
0

>  <i_lp_mmshare_version>  (1) 
72125

>  <i_m_source_file_index>  (1) 
16

>  <i_f3d_flags>  (1) 
0

>  <num_sample>  (1) 
50

>  <b_lp_Chiralities_Consistent>  (1) 
1

>  <r_epik_Charging_Adjusted_Penalty>  (1) 
0

>  <r_epik_Ionization_Penalty>  (1) 
1.3889264151150229e-11

>  <r_epik_Ionization_Penalty_Charging>  (1) 
0

>  <r_epik_Ionization_Penalty_Neutral>  (1) 
1.3889264151150229e-11

>  <r_epik_State_Penalty>  (1) 
-0

>  <r_glide_ring_energy>  (1) 
0.26153960478789529

>  <r_i_docking_score>  (1) 
-4.699021102755518

>  <r_i_glide_ecoul>  (1) 
-0.56008741236787063

>  <r_i_glide_eff_state_penalty>  (1) 
-0

>  <r_i_glide_einternal>  (1) 
0

>  <r_i_glide_emodel>  (1) 
-20.744759946859187

>  <r_i_glide_emodel_strain>  (1) 
0.715710932870401

>  <r_i_glide_energy>  (1) 
-16.513510377714514

>  <r_i_glide_erotb>  (1) 
0

>  <r_i_glide_esite>  (1) 
0

>  <r_i_glide_evdw>  (1) 
-15.953422965346645

>  <r_i_glide_gscore>  (1) 
-4.699021102755518

>  <r_i_glide_gscore_strain>  (1) 
0

>  <r_i_glide_hbond>  (1) 
0

>  <r_i_glide_ligand_efficiency>  (1) 
-0.67128872896507397

>  <r_i_glide_ligand_efficiency_ln>  (1) 
-1.5950999402552679

>  <r_i_glide_ligand_efficiency_sa>  (1) 
-1.2841291422809329

>  <r_i_glide_lipo>  (1) 
-1.1665125346123506

>  <r_i_glide_metal>  (1) 
-0

>  <r_i_glide_rewards>  (1) 
-2.6508243080206544

>  <r_lp_Energy>  (1) 
0.043719999999999995

>  <r_lp_tautomer_probability>  (1) 
1

>  <s_epik_cmdline>  (1) 
J2VwaWtfcHl0aG9uJywgJy1waHQnLCAnMS4wJywgJy1waCcsICc3LjQnLCAnLXRuJywgJzgnLCAnLW1hJywgJzUwMCcsICctaW1hZScsICc8aW5maWxlLm1hZT4nLCAnLW9tYWUnLCAnPG91dGZpbGUubWFlPic=

>  <s_epik_input>  (1) 
W0NIMl0xW0NIMl1bQ0gyXU9DMShbQ0gzXSlbQ0gzXQ==

>  <s_glide_docking_method>  (1) 
confgen

>  <s_i_glide_gridfile>  (1) 
gpcr_drd2_6luq_protein_autoprepared_prepared

>  <s_lp_Force_Field>  (1) 
S-OPLS

>  <s_lp_Variant>  (1) 
Pocket2Mol_15-1

>  <s_m_source_file>  (1) 
generated_generic_title2_ligand_Pocket2Mol_2026-06-23_prepared.sdf

>  <GenAI_Model>  (1) 
Pocket2Mol

>  <Protein>  (1) 
generic_title2

$$$$
Pocket2Mol_12
     RDKit          3D

  0  0  0  0  0  0  0  0  0  0999 V3000
M  V30 BEGIN CTAB
M  V30 COUNTS 15 15 0 0 1
M  V30 BEGIN ATOM
M  V30 1 N 10.593985 7.039610 -5.903809 0
M  V30 2 C 11.375410 7.206085 -4.785025 0
M  V30 3 C 11.775388 8.537917 -4.745263 0
M  V30 4 C 10.495718 8.209783 -6.563725 0
M  V30 5 C 12.635879 9.190227 -3.699411 0
M  V30 6 N 9.775409 8.390219 -7.732563 0
M  V30 7 C 11.196751 9.168678 -5.910082 0
M  V30 8 H 11.574753 6.378518 -4.119081 0
M  V30 9 H 13.013146 8.450429 -2.993287 0
M  V30 10 H 13.485542 9.686789 -4.166981 0
M  V30 11 H 12.059362 9.929759 -3.142994 0
M  V30 12 H 9.700288 9.282188 -8.197311 0
M  V30 13 H 10.157428 6.173237 -6.185994 0
M  V30 14 H 11.289881 10.200932 -6.213786 0
M  V30 15 H 9.227251 7.654133 -8.163670 0
M  V30 END ATOM
M  V30 BEGIN BOND
M  V30 1 1 2 1
M  V30 2 2 3 2
M  V30 3 1 4 1
M  V30 4 1 5 3
M  V30 5 1 6 4
M  V30 6 1 7 3
M  V30 7 2 7 4
M  V30 8 1 8 2
M  V30 9 1 9 5
M  V30 10 1 10 5
M  V30 11 1 11 5
M  V30 12 1 12 6
M  V30 13 1 13 1
M  V30 14 1 14 7
M  V30 15 1 15 6
M  V30 END BOND
M  V30 END CTAB
M  END
>  <i_epik_Tot_Q>  (1) 
0

>  <i_epik_Tot_abs_Q>  (1) 
0

>  <i_i_glide_confnum>  (1) 
1

>  <i_i_glide_lignum>  (1) 
15

>  <i_i_glide_posenum>  (1) 
324

>  <i_i_glide_rotatable_bonds>  (1) 
0

>  <i_lp_mmshare_version>  (1) 
72125

>  <i_m_source_file_index>  (1) 
13

>  <i_f3d_flags>  (1) 
0

>  <num_sample>  (1) 
50

>  <b_lp_Chiralities_Consistent>  (1) 
1

>  <r_epik_Charging_Adjusted_Penalty>  (1) 
0

>  <r_epik_Ionization_Penalty>  (1) 
0.00031849139131666116

>  <r_epik_Ionization_Penalty_Charging>  (1) 
0

>  <r_epik_Ionization_Penalty_Neutral>  (1) 
0.00031849139131666116

>  <r_epik_State_Penalty>  (1) 
-0

>  <r_glide_ring_energy>  (1) 
0

>  <r_i_docking_score>  (1) 
-4.6965538164167722

>  <r_i_glide_ecoul>  (1) 
-1.6767099162882502

>  <r_i_glide_eff_state_penalty>  (1) 
-0

>  <r_i_glide_einternal>  (1) 
0

>  <r_i_glide_emodel>  (1) 
-23.510892668958068

>  <r_i_glide_emodel_strain>  (1) 
0.0025914419815187273

>  <r_i_glide_energy>  (1) 
-17.5336743916553

>  <r_i_glide_erotb>  (1) 
0

>  <r_i_glide_esite>  (1) 
-0.043309473713005045

>  <r_i_glide_evdw>  (1) 
-15.856964475367048

>  <r_i_glide_gscore>  (1) 
-4.6965538164167722

>  <r_i_glide_gscore_strain>  (1) 
0

>  <r_i_glide_hbond>  (1) 
0

>  <r_i_glide_ligand_efficiency>  (1) 
-0.67093625948811031

>  <r_i_glide_ligand_efficiency_ln>  (1) 
-1.5942624108623444

>  <r_i_glide_ligand_efficiency_sa>  (1) 
-1.2834548924274736

>  <r_i_glide_lipo>  (1) 
-1.2684131064571167

>  <r_i_glide_metal>  (1) 
-0

>  <r_i_glide_rewards>  (1) 
-2.3404765250350605

>  <r_lp_Energy>  (1) 
-3.18065

>  <r_lp_tautomer_probability>  (1) 
1

>  <s_epik_cmdline>  (1) 
J2VwaWtfcHl0aG9uJywgJy1waHQnLCAnMS4wJywgJy1waCcsICc3LjQnLCAnLXRuJywgJzgnLCAnLW1hJywgJzUwMCcsICctaW1hZScsICc8aW5maWxlLm1hZT4nLCAnLW9tYWUnLCAnPG91dGZpbGUubWFlPic=

>  <s_epik_input>  (1) 
W05IMl1DKFtDSDJdMSk9TltDSF09QzFbQ0gzXQ==

>  <s_glide_docking_method>  (1) 
confgen

>  <s_i_glide_gridfile>  (1) 
gpcr_drd2_6luq_protein_autoprepared_prepared

>  <s_lp_Force_Field>  (1) 
S-OPLS

>  <s_lp_Variant>  (1) 
Pocket2Mol_12-1

>  <s_m_source_file>  (1) 
generated_generic_title2_ligand_Pocket2Mol_2026-06-23_prepared.sdf

>  <GenAI_Model>  (1) 
Pocket2Mol

>  <Protein>  (1) 
generic_title2

$$$$
Pocket2Mol_12
     RDKit          3D

  0  0  0  0  0  0  0  0  0  0999 V3000
M  V30 BEGIN CTAB
M  V30 COUNTS 15 15 0 0 1
M  V30 BEGIN ATOM
M  V30 1 N 10.815094 6.457652 -5.902016 0
M  V30 2 C 11.375277 7.421678 -5.097947 0
M  V30 3 C 10.975414 8.659888 -5.586269 0
M  V30 4 C 10.078918 7.045652 -6.865109 0
M  V30 5 C 11.345225 10.010480 -5.035108 0
M  V30 6 N 9.375630 6.362274 -7.841909 0
M  V30 7 C 10.132392 8.390605 -6.728927 0
M  V30 8 H 12.002626 7.151024 -4.261167 0
M  V30 9 H 12.287711 9.955096 -4.489846 0
M  V30 10 H 11.460868 10.731464 -5.844636 0
M  V30 11 H 10.575523 10.377427 -4.356367 0
M  V30 12 H 8.781521 6.834580 -8.518446 0
M  V30 13 H 10.930248 5.460295 -5.783904 0
M  V30 14 H 9.634019 9.108467 -7.363384 0
M  V30 15 H 9.342310 5.355927 -7.896240 0
M  V30 END ATOM
M  V30 BEGIN BOND
M  V30 1 1 2 1
M  V30 2 2 3 2
M  V30 3 1 4 1
M  V30 4 1 5 3
M  V30 5 1 6 4
M  V30 6 1 7 3
M  V30 7 2 7 4
M  V30 8 1 8 2
M  V30 9 1 9 5
M  V30 10 1 10 5
M  V30 11 1 11 5
M  V30 12 1 12 6
M  V30 13 1 13 1
M  V30 14 1 14 7
M  V30 15 1 15 6
M  V30 END BOND
M  V30 END CTAB
M  END
>  <i_epik_Tot_Q>  (1) 
0

>  <i_epik_Tot_abs_Q>  (1) 
0

>  <i_i_glide_confnum>  (1) 
1

>  <i_i_glide_lignum>  (1) 
15

>  <i_i_glide_posenum>  (1) 
374

>  <i_i_glide_rotatable_bonds>  (1) 
0

>  <i_lp_mmshare_version>  (1) 
72125

>  <i_m_source_file_index>  (1) 
13

>  <i_f3d_flags>  (1) 
0

>  <num_sample>  (1) 
50

>  <b_lp_Chiralities_Consistent>  (1) 
1

>  <r_epik_Charging_Adjusted_Penalty>  (1) 
0

>  <r_epik_Ionization_Penalty>  (1) 
0.00031849139131666116

>  <r_epik_Ionization_Penalty_Charging>  (1) 
0

>  <r_epik_Ionization_Penalty_Neutral>  (1) 
0.00031849139131666116

>  <r_epik_State_Penalty>  (1) 
-0

>  <r_glide_ring_energy>  (1) 
0

>  <r_i_docking_score>  (1) 
-4.6838832260207912

>  <r_i_glide_ecoul>  (1) 
-1.617929517270321

>  <r_i_glide_eff_state_penalty>  (1) 
-0

>  <r_i_glide_einternal>  (1) 
0

>  <r_i_glide_emodel>  (1) 
-23.238138905479346

>  <r_i_glide_emodel_strain>  (1) 
0.00017046661037412036

>  <r_i_glide_energy>  (1) 
-17.274632273139538

>  <r_i_glide_erotb>  (1) 
0

>  <r_i_glide_esite>  (1) 
-0.071074986966328343

>  <r_i_glide_evdw>  (1) 
-15.656702755869215

>  <r_i_glide_gscore>  (1) 
-4.6838832260207912

>  <r_i_glide_gscore_strain>  (1) 
0

>  <r_i_glide_hbond>  (1) 
-0.064682715485802372

>  <r_i_glide_ligand_efficiency>  (1) 
-0.66912617514582728

>  <r_i_glide_ligand_efficiency_ln>  (1) 
-1.5899613325011988

>  <r_i_glide_ligand_efficiency_sa>  (1) 
-1.2799923256456722

>  <r_i_glide_lipo>  (1) 
-1.1142676248513181

>  <r_i_glide_metal>  (1) 
-0

>  <r_i_glide_rewards>  (1) 
-2.4083333333333332

>  <r_lp_Energy>  (1) 
-3.18065

>  <r_lp_tautomer_probability>  (1) 
1

>  <s_epik_cmdline>  (1) 
J2VwaWtfcHl0aG9uJywgJy1waHQnLCAnMS4wJywgJy1waCcsICc3LjQnLCAnLXRuJywgJzgnLCAnLW1hJywgJzUwMCcsICctaW1hZScsICc8aW5maWxlLm1hZT4nLCAnLW9tYWUnLCAnPG91dGZpbGUubWFlPic=

>  <s_epik_input>  (1) 
W05IMl1DKFtDSDJdMSk9TltDSF09QzFbQ0gzXQ==

>  <s_glide_docking_method>  (1) 
confgen

>  <s_i_glide_gridfile>  (1) 
gpcr_drd2_6luq_protein_autoprepared_prepared

>  <s_lp_Force_Field>  (1) 
S-OPLS

>  <s_lp_Variant>  (1) 
Pocket2Mol_12-1

>  <s_m_source_file>  (1) 
generated_generic_title2_ligand_Pocket2Mol_2026-06-23_prepared.sdf

>  <GenAI_Model>  (1) 
Pocket2Mol

>  <Protein>  (1) 
generic_title2

$$$$
Pocket2Mol_11
     RDKit          3D

  0  0  0  0  0  0  0  0  0  0999 V3000
M  V30 BEGIN CTAB
M  V30 COUNTS 14 14 0 0 1
M  V30 BEGIN ATOM
M  V30 1 O 12.354023 7.907923 -2.257106 0
M  V30 2 C 12.266000 8.790226 -3.266714 0
M  V30 3 C 11.785338 6.690188 -2.874679 0
M  V30 4 C 11.775410 8.353487 -4.385025 0
M  V30 5 C 11.585171 9.190232 -5.634201 0
M  V30 6 C 11.376206 6.936467 -4.406916 0
M  V30 7 H 12.615679 9.784353 -3.030515 0
M  V30 8 H 10.911986 6.382760 -2.298300 0
M  V30 9 H 12.511542 5.881230 -2.790893 0
M  V30 10 H 10.536026 9.190260 -5.931498 0
M  V30 11 H 11.891264 10.223556 -5.466651 0
M  V30 12 H 12.175406 8.789953 -6.458442 0
M  V30 13 H 10.313028 6.790265 -4.600709 0
M  V30 14 H 11.972201 6.351741 -5.107185 0
M  V30 END ATOM
M  V30 BEGIN BOND
M  V30 1 1 2 1
M  V30 2 1 3 1
M  V30 3 2 4 2
M  V30 4 1 5 4
M  V30 5 1 6 3
M  V30 6 1 6 4
M  V30 7 1 7 2
M  V30 8 1 8 3
M  V30 9 1 9 3
M  V30 10 1 10 5
M  V30 11 1 11 5
M  V30 12 1 12 5
M  V30 13 1 13 6
M  V30 14 1 14 6
M  V30 END BOND
M  V30 END CTAB
M  END
>  <i_epik_Tot_Q>  (1) 
0

>  <i_epik_Tot_abs_Q>  (1) 
0

>  <i_i_glide_confnum>  (1) 
1

>  <i_i_glide_lignum>  (1) 
14

>  <i_i_glide_posenum>  (1) 
94

>  <i_i_glide_rotatable_bonds>  (1) 
0

>  <i_lp_mmshare_version>  (1) 
72125

>  <i_m_source_file_index>  (1) 
12

>  <i_f3d_flags>  (1) 
0

>  <num_sample>  (1) 
50

>  <b_lp_Chiralities_Consistent>  (1) 
1

>  <r_epik_Charging_Adjusted_Penalty>  (1) 
0

>  <r_epik_Ionization_Penalty>  (1) 
0

>  <r_epik_Ionization_Penalty_Charging>  (1) 
0

>  <r_epik_Ionization_Penalty_Neutral>  (1) 
0

>  <r_epik_State_Penalty>  (1) 
-0

>  <r_glide_ring_energy>  (1) 
0

>  <r_i_docking_score>  (1) 
-4.6687020018130827

>  <r_i_glide_ecoul>  (1) 
-0.51300156597357294

>  <r_i_glide_eff_state_penalty>  (1) 
-0

>  <r_i_glide_einternal>  (1) 
0

>  <r_i_glide_emodel>  (1) 
-19.727161382835252

>  <r_i_glide_emodel_strain>  (1) 
0

>  <r_i_glide_energy>  (1) 
-15.162079259598766

>  <r_i_glide_erotb>  (1) 
0

>  <r_i_glide_esite>  (1) 
0

>  <r_i_glide_evdw>  (1) 
-14.649077693625193

>  <r_i_glide_gscore>  (1) 
-4.6687020018130827

>  <r_i_glide_gscore_strain>  (1) 
0

>  <r_i_glide_hbond>  (1) 
0

>  <r_i_glide_ligand_efficiency>  (1) 
-0.77811700030218045

>  <r_i_glide_ligand_efficiency_ln>  (1) 
-1.6723152740318341

>  <r_i_glide_ligand_efficiency_sa>  (1) 
-1.4139324248818645

>  <r_i_glide_lipo>  (1) 
-1.3850751043526781

>  <r_i_glide_metal>  (1) 
-0

>  <r_i_glide_rewards>  (1) 
-2.4742227778831083

>  <r_lp_Energy>  (1) 
-7.9393969999999996

>  <r_lp_tautomer_probability>  (1) 
1

>  <s_epik_cmdline>  (1) 
J2VwaWtfcHl0aG9uJywgJy1waHQnLCAnMS4wJywgJy1waCcsICc3LjQnLCAnLXRuJywgJzgnLCAnLW1hJywgJzUwMCcsICctaW1hZScsICc8aW5maWxlLm1hZT4nLCAnLW9tYWUnLCAnPG91dGZpbGUubWFlPic=

>  <s_epik_input>  (1) 
W0NIMl0xW0NIMl1PW0NIXT1DMVtDSDNd

>  <s_glide_docking_method>  (1) 
confgen

>  <s_i_glide_gridfile>  (1) 
gpcr_drd2_6luq_protein_autoprepared_prepared

>  <s_lp_Force_Field>  (1) 
S-OPLS

>  <s_lp_Variant>  (1) 
Pocket2Mol_11-1

>  <s_m_source_file>  (1) 
generated_generic_title2_ligand_Pocket2Mol_2026-06-23_prepared.sdf

>  <GenAI_Model>  (1) 
Pocket2Mol

>  <Protein>  (1) 
generic_title2

$$$$
Pocket2Mol_33
     RDKit          3D

  0  0  0  0  0  0  0  0  0  0999 V3000
M  V30 BEGIN CTAB
M  V30 COUNTS 21 22 0 0 1
M  V30 BEGIN ATOM
M  V30 1 C 10.808578 7.834093 -10.067227 0
M  V30 2 O 9.775410 7.897445 -9.103524 0
M  V30 3 C 10.311548 7.533495 -7.840017 0 CFG=2
M  V30 4 C 10.118178 6.028666 -7.600158 0
M  V30 5 C 9.695317 8.379102 -6.740014 0
M  V30 6 C 12.007205 8.420566 -9.331539 0
M  V30 7 C 10.908249 8.913694 -5.985025 0
M  V30 8 C 11.775417 7.988936 -7.891251 0 CFG=1
M  V30 9 O 11.880622 9.092543 -6.999239 0
M  V30 10 H 10.546896 8.390226 -10.966367 0
M  V30 11 H 10.975409 6.794189 -10.346169 0
M  V30 12 H 10.558758 5.725731 -6.650957 0
M  V30 13 H 9.057598 5.775294 -7.572680 0
M  V30 14 H 10.575410 5.429090 -8.385036 0
M  V30 15 H 9.012175 7.824679 -6.095999 0
M  V30 16 H 9.124178 9.190227 -7.185027 0
M  V30 17 H 11.982082 9.508480 -9.407556 0
M  V30 18 H 12.960931 8.077648 -9.732388 0
M  V30 19 H 11.267560 8.179656 -5.261957 0
M  V30 20 H 10.699474 9.844351 -5.456949 0
M  V30 21 H 12.451251 7.190230 -7.585025 0
M  V30 END ATOM
M  V30 BEGIN BOND
M  V30 1 1 2 1
M  V30 2 1 3 2
M  V30 3 1 3 4 CFG=1
M  V30 4 1 5 3
M  V30 5 1 6 1
M  V30 6 1 7 5
M  V30 7 1 8 3
M  V30 8 1 8 6
M  V30 9 1 9 7
M  V30 10 1 9 8
M  V30 11 1 10 1
M  V30 12 1 11 1
M  V30 13 1 12 4
M  V30 14 1 13 4
M  V30 15 1 14 4
M  V30 16 1 15 5
M  V30 17 1 16 5
M  V30 18 1 17 6
M  V30 19 1 18 6
M  V30 20 1 19 7
M  V30 21 1 20 7
M  V30 22 1 8 21 CFG=1
M  V30 END BOND
M  V30 END CTAB
M  END
>  <i_epik_Tot_Q>  (1) 
0

>  <i_epik_Tot_abs_Q>  (1) 
0

>  <i_i_glide_confnum>  (1) 
4

>  <i_i_glide_lignum>  (1) 
37

>  <i_i_glide_posenum>  (1) 
282

>  <i_i_glide_rotatable_bonds>  (1) 
0

>  <i_lp_mmshare_version>  (1) 
72125

>  <i_m_source_file_index>  (1) 
34

>  <i_f3d_flags>  (1) 
0

>  <num_sample>  (1) 
50

>  <b_lp_Chiralities_Consistent>  (1) 
1

>  <r_epik_Charging_Adjusted_Penalty>  (1) 
0

>  <r_epik_Ionization_Penalty>  (1) 
2.529470820146915e-12

>  <r_epik_Ionization_Penalty_Charging>  (1) 
0

>  <r_epik_Ionization_Penalty_Neutral>  (1) 
2.529470820146915e-12

>  <r_epik_State_Penalty>  (1) 
-0

>  <r_glide_ring_energy>  (1) 
0.71124509259843272

>  <r_i_docking_score>  (1) 
-4.6511807549860738

>  <r_i_glide_ecoul>  (1) 
0.73239223241036178

>  <r_i_glide_eff_state_penalty>  (1) 
-0

>  <r_i_glide_einternal>  (1) 
0

>  <r_i_glide_emodel>  (1) 
-24.256356729407575

>  <r_i_glide_emodel_strain>  (1) 
0

>  <r_i_glide_energy>  (1) 
-19.015867978529513

>  <r_i_glide_erotb>  (1) 
0

>  <r_i_glide_esite>  (1) 
0

>  <r_i_glide_evdw>  (1) 
-19.748260210939875

>  <r_i_glide_gscore>  (1) 
-4.6511807549860738

>  <r_i_glide_gscore_strain>  (1) 
0

>  <r_i_glide_hbond>  (1) 
0

>  <r_i_glide_ligand_efficiency>  (1) 
-0.51679786166511932

>  <r_i_glide_ligand_efficiency_ln>  (1) 
-1.4547557240602798

>  <r_i_glide_ligand_efficiency_sa>  (1) 
-1.0749828718374306

>  <r_i_glide_lipo>  (1) 
-0.90362554032032105

>  <r_i_glide_metal>  (1) 
-0

>  <r_i_glide_rewards>  (1) 
-2.8700010389803121

>  <r_lp_Energy>  (1) 
-0.369228

>  <r_lp_tautomer_probability>  (1) 
1

>  <s_epik_cmdline>  (1) 
J2VwaWtfcHl0aG9uJywgJy1waHQnLCAnMS4wJywgJy1waCcsICc3LjQnLCAnLXRuJywgJzgnLCAnLW1hJywgJzUwMCcsICctaW1hZScsICc8aW5maWxlLm1hZT4nLCAnLW9tYWUnLCAnPG91dGZpbGUubWFlPic=

>  <s_epik_input>  (1) 
TzFbQ0gyXVtDSDJdW0NASF0oW0NAXTEyW0NIM10pT1tDSDJdW0NIMl0y

>  <s_glide_docking_method>  (1) 
confgen

>  <s_i_glide_gridfile>  (1) 
gpcr_drd2_6luq_protein_autoprepared_prepared

>  <s_lp_Force_Field>  (1) 
S-OPLS

>  <s_lp_Variant>  (1) 
Pocket2Mol_33-1

>  <s_m_source_file>  (1) 
generated_generic_title2_ligand_Pocket2Mol_2026-06-23_prepared.sdf

>  <GenAI_Model>  (1) 
Pocket2Mol

>  <Protein>  (1) 
generic_title2

$$$$
Pocket2Mol_4
     RDKit          3D

  0  0  0  0  0  0  0  0  0  0999 V3000
M  V30 BEGIN CTAB
M  V30 COUNTS 16 16 0 0 1
M  V30 BEGIN ATOM
M  V30 1 C 11.625740 9.237681 -4.805265 0
M  V30 2 O 11.775409 7.836857 -4.593956 0
M  V30 3 C 10.914111 7.041076 -5.409324 0
M  V30 4 C 11.184558 7.284524 -6.901924 0
M  V30 5 C 11.078165 8.777087 -7.224948 0
M  V30 6 C 11.950966 9.590748 -6.262427 0
M  V30 7 H 10.613922 9.557471 -4.554479 0
M  V30 8 H 12.300480 9.766877 -4.132654 0
M  V30 9 H 11.070488 5.990449 -5.165625 0
M  V30 10 H 9.870752 7.263501 -5.185016 0
M  V30 11 H 12.175413 6.917695 -7.163940 0
M  V30 12 H 10.476929 6.718285 -7.508877 0
M  V30 13 H 11.368764 8.966655 -8.259161 0
M  V30 14 H 10.037434 9.090192 -7.128716 0
M  V30 15 H 11.794600 10.657513 -6.427083 0
M  V30 16 H 13.005422 9.395265 -6.459701 0
M  V30 END ATOM
M  V30 BEGIN BOND
M  V30 1 1 2 1
M  V30 2 1 3 2
M  V30 3 1 4 3
M  V30 4 1 5 4
M  V30 5 1 6 1
M  V30 6 1 6 5
M  V30 7 1 7 1
M  V30 8 1 8 1
M  V30 9 1 9 3
M  V30 10 1 10 3
M  V30 11 1 11 4
M  V30 12 1 12 4
M  V30 13 1 13 5
M  V30 14 1 14 5
M  V30 15 1 15 6
M  V30 16 1 16 6
M  V30 END BOND
M  V30 END CTAB
M  END
>  <i_epik_Tot_Q>  (1) 
0

>  <i_epik_Tot_abs_Q>  (1) 
0

>  <i_i_glide_confnum>  (1) 
1

>  <i_i_glide_lignum>  (1) 
5

>  <i_i_glide_posenum>  (1) 
278

>  <i_i_glide_rotatable_bonds>  (1) 
0

>  <i_lp_mmshare_version>  (1) 
72125

>  <i_m_source_file_index>  (1) 
5

>  <i_f3d_flags>  (1) 
0

>  <num_sample>  (1) 
50

>  <b_lp_Chiralities_Consistent>  (1) 
1

>  <r_epik_Charging_Adjusted_Penalty>  (1) 
0

>  <r_epik_Ionization_Penalty>  (1) 
1.5229185111393156e-11

>  <r_epik_Ionization_Penalty_Charging>  (1) 
0

>  <r_epik_Ionization_Penalty_Neutral>  (1) 
1.5229185111393156e-11

>  <r_epik_State_Penalty>  (1) 
-0

>  <r_glide_ring_energy>  (1) 
0

>  <r_i_docking_score>  (1) 
-4.6494703021561889

>  <r_i_glide_ecoul>  (1) 
-0.45294994935371136

>  <r_i_glide_eff_state_penalty>  (1) 
-0

>  <r_i_glide_einternal>  (1) 
0

>  <r_i_glide_emodel>  (1) 
-18.306100818151247

>  <r_i_glide_emodel_strain>  (1) 
1.3511325391846185e-10

>  <r_i_glide_energy>  (1) 
-13.878883726809839

>  <r_i_glide_erotb>  (1) 
0

>  <r_i_glide_esite>  (1) 
0

>  <r_i_glide_evdw>  (1) 
-13.425933777456128

>  <r_i_glide_gscore>  (1) 
-4.6494703021561889

>  <r_i_glide_gscore_strain>  (1) 
0

>  <r_i_glide_hbond>  (1) 
0

>  <r_i_glide_ligand_efficiency>  (1) 
-0.77491171702603145

>  <r_i_glide_ligand_efficiency_ln>  (1) 
-1.6654265359908698

>  <r_i_glide_ligand_efficiency_sa>  (1) 
-1.4081080386349139

>  <r_i_glide_lipo>  (1) 
-1.3721762678238334

>  <r_i_glide_metal>  (1) 
-0

>  <r_i_glide_rewards>  (1) 
-2.5380548530564924

>  <r_lp_Energy>  (1) 
2.9645999999999999

>  <r_lp_tautomer_probability>  (1) 
1

>  <s_epik_cmdline>  (1) 
J2VwaWtfcHl0aG9uJywgJy1waHQnLCAnMS4wJywgJy1waCcsICc3LjQnLCAnLXRuJywgJzgnLCAnLW1hJywgJzUwMCcsICctaW1hZScsICc8aW5maWxlLm1hZT4nLCAnLW9tYWUnLCAnPG91dGZpbGUubWFlPic=

>  <s_epik_input>  (1) 
W0NIMl0xT1tDSDJdW0NIMl1bQ0gyXVtDSDJdMQ==

>  <s_glide_docking_method>  (1) 
confgen

>  <s_i_glide_gridfile>  (1) 
gpcr_drd2_6luq_protein_autoprepared_prepared

>  <s_lp_Force_Field>  (1) 
S-OPLS

>  <s_lp_Variant>  (1) 
Pocket2Mol_4-1

>  <s_m_source_file>  (1) 
generated_generic_title2_ligand_Pocket2Mol_2026-06-23_prepared.sdf

>  <GenAI_Model>  (1) 
Pocket2Mol

>  <Protein>  (1) 
generic_title2

$$$$
Pocket2Mol_6
     RDKit          3D

  0  0  0  0  0  0  0  0  0  0999 V3000
M  V30 BEGIN CTAB
M  V30 COUNTS 11 11 0 0 1
M  V30 BEGIN ATOM
M  V30 1 N 11.775409 6.739176 -3.755657 0
M  V30 2 C 12.294584 7.851242 -3.185443 0
M  V30 3 C 12.193666 9.134440 -3.756660 0
M  V30 4 C 11.521804 9.277832 -4.980910 0
M  V30 5 C 10.976785 8.133786 -5.584683 0
M  V30 6 C 11.128408 6.890140 -4.938071 0
M  V30 7 H 12.808058 7.711916 -2.244980 0
M  V30 8 H 12.626064 9.990227 -3.261391 0
M  V30 9 H 11.425587 10.247251 -5.446754 0
M  V30 10 H 10.451486 8.204546 -6.526462 0
M  V30 11 H 10.719278 5.992302 -5.378511 0
M  V30 END ATOM
M  V30 BEGIN BOND
M  V30 1 2 2 1
M  V30 2 1 3 2
M  V30 3 2 4 3
M  V30 4 1 5 4
M  V30 5 1 6 1
M  V30 6 2 6 5
M  V30 7 1 7 2
M  V30 8 1 8 3
M  V30 9 1 9 4
M  V30 10 1 10 5
M  V30 11 1 11 6
M  V30 END BOND
M  V30 END CTAB
M  END
>  <i_epik_Tot_Q>  (1) 
0

>  <i_epik_Tot_abs_Q>  (1) 
0

>  <i_i_glide_confnum>  (1) 
1

>  <i_i_glide_lignum>  (1) 
7

>  <i_i_glide_posenum>  (1) 
341

>  <i_i_glide_rotatable_bonds>  (1) 
0

>  <i_lp_mmshare_version>  (1) 
72125

>  <i_m_source_file_index>  (1) 
7

>  <i_f3d_flags>  (1) 
0

>  <num_sample>  (1) 
50

>  <b_lp_Chiralities_Consistent>  (1) 
1

>  <r_epik_Charging_Adjusted_Penalty>  (1) 
0

>  <r_epik_Ionization_Penalty>  (1) 
0.0028947865417402485

>  <r_epik_Ionization_Penalty_Charging>  (1) 
0

>  <r_epik_Ionization_Penalty_Neutral>  (1) 
0.0028947865417402485

>  <r_epik_State_Penalty>  (1) 
-0

>  <r_glide_ring_energy>  (1) 
0

>  <r_i_docking_score>  (1) 
-4.6488913584469298

>  <r_i_glide_ecoul>  (1) 
-0.13055931046898839

>  <r_i_glide_eff_state_penalty>  (1) 
-0

>  <r_i_glide_einternal>  (1) 
0

>  <r_i_glide_emodel>  (1) 
-18.812336325158384

>  <r_i_glide_emodel_strain>  (1) 
0

>  <r_i_glide_energy>  (1) 
-14.399964887913002

>  <r_i_glide_erotb>  (1) 
0

>  <r_i_glide_esite>  (1) 
0

>  <r_i_glide_evdw>  (1) 
-14.269405577444013

>  <r_i_glide_gscore>  (1) 
-4.6488913584469298

>  <r_i_glide_gscore_strain>  (1) 
0

>  <r_i_glide_hbond>  (1) 
0

>  <r_i_glide_ligand_efficiency>  (1) 
-0.77481522640782163

>  <r_i_glide_ligand_efficiency_ln>  (1) 
-1.6652191600633801

>  <r_i_glide_ligand_efficiency_sa>  (1) 
-1.4079327035455496

>  <r_i_glide_lipo>  (1) 
-1.5564890203122432

>  <r_i_glide_metal>  (1) 
-0

>  <r_i_glide_rewards>  (1) 
-2.3593481626921382

>  <r_lp_Energy>  (1) 
11.088944

>  <r_lp_tautomer_probability>  (1) 
1

>  <s_epik_cmdline>  (1) 
J2VwaWtfcHl0aG9uJywgJy1waHQnLCAnMS4wJywgJy1waCcsICc3LjQnLCAnLXRuJywgJzgnLCAnLW1hJywgJzUwMCcsICctaW1hZScsICc8aW5maWxlLm1hZT4nLCAnLW9tYWUnLCAnPG91dGZpbGUubWFlPic=

>  <s_epik_input>  (1) 
bjFbY0hdW2NIXVtjSF1bY0hdW2NIXTE=

>  <s_glide_docking_method>  (1) 
confgen

>  <s_i_glide_gridfile>  (1) 
gpcr_drd2_6luq_protein_autoprepared_prepared

>  <s_lp_Force_Field>  (1) 
S-OPLS

>  <s_lp_Variant>  (1) 
Pocket2Mol_6-1

>  <s_m_source_file>  (1) 
generated_generic_title2_ligand_Pocket2Mol_2026-06-23_prepared.sdf

>  <GenAI_Model>  (1) 
Pocket2Mol

>  <Protein>  (1) 
generic_title2

$$$$
Pocket2Mol_30
     RDKit          3D

  0  0  0  0  0  0  0  0  0  0999 V3000
M  V30 BEGIN CTAB
M  V30 COUNTS 20 21 0 0 1
M  V30 BEGIN ATOM
M  V30 1 C 10.836036 6.385040 -5.316404 0
M  V30 2 O 10.975410 7.795785 -5.185057 0
M  V30 3 C 10.849681 8.427948 -6.456649 0 CFG=2
M  V30 4 C 11.630943 9.731025 -6.420398 0
M  V30 5 C 9.405920 8.390140 -6.997866 0
M  V30 6 C 11.399568 6.053928 -6.698730 0
M  V30 7 C 9.915412 7.614609 -8.210275 0
M  V30 8 C 11.225190 7.335849 -7.458437 0 CFG=1
M  V30 9 H 11.356373 5.864533 -4.512733 0
M  V30 10 H 9.780447 6.120077 -5.257694 0
M  V30 11 H 11.775410 10.117699 -7.425390 0
M  V30 12 H 12.621009 9.589541 -5.986221 0
M  V30 13 H 11.114816 10.488925 -5.831176 0
M  V30 14 H 8.708425 7.816203 -6.386316 0
M  V30 15 H 8.975482 9.348063 -7.272432 0
M  V30 16 H 12.453416 5.795056 -6.615322 0
M  V30 17 H 10.891992 5.220748 -7.185023 0
M  V30 18 H 9.322435 6.731567 -8.452368 0
M  V30 19 H 10.053061 8.252659 -9.084367 0
M  V30 20 H 12.091588 7.597160 -8.067287 0
M  V30 END ATOM
M  V30 BEGIN BOND
M  V30 1 1 2 1
M  V30 2 1 3 2
M  V30 3 1 3 4 CFG=1
M  V30 4 1 5 3
M  V30 5 1 6 1
M  V30 6 1 7 5
M  V30 7 1 8 3
M  V30 8 1 8 6
M  V30 9 1 8 7
M  V30 10 1 9 1
M  V30 11 1 10 1
M  V30 12 1 11 4
M  V30 13 1 12 4
M  V30 14 1 13 4
M  V30 15 1 14 5
M  V30 16 1 15 5
M  V30 17 1 16 6
M  V30 18 1 17 6
M  V30 19 1 18 7
M  V30 20 1 19 7
M  V30 21 1 8 20 CFG=3
M  V30 END BOND
M  V30 END CTAB
M  END
>  <i_epik_Tot_Q>  (1) 
0

>  <i_epik_Tot_abs_Q>  (1) 
0

>  <i_i_glide_confnum>  (1) 
1

>  <i_i_glide_lignum>  (1) 
34

>  <i_i_glide_posenum>  (1) 
186

>  <i_i_glide_rotatable_bonds>  (1) 
0

>  <i_lp_mmshare_version>  (1) 
72125

>  <i_m_source_file_index>  (1) 
31

>  <i_f3d_flags>  (1) 
0

>  <num_sample>  (1) 
50

>  <b_lp_Chiralities_Consistent>  (1) 
1

>  <r_epik_Charging_Adjusted_Penalty>  (1) 
0

>  <r_epik_Ionization_Penalty>  (1) 
2.3587344998035955e-11

>  <r_epik_Ionization_Penalty_Charging>  (1) 
0

>  <r_epik_Ionization_Penalty_Neutral>  (1) 
2.3587344998035955e-11

>  <r_epik_State_Penalty>  (1) 
-0

>  <r_glide_ring_energy>  (1) 
0

>  <r_i_docking_score>  (1) 
-4.6436315764285201

>  <r_i_glide_ecoul>  (1) 
-0.81290363308608116

>  <r_i_glide_eff_state_penalty>  (1) 
-0

>  <r_i_glide_einternal>  (1) 
0

>  <r_i_glide_emodel>  (1) 
-18.35509299078165

>  <r_i_glide_emodel_strain>  (1) 
0

>  <r_i_glide_energy>  (1) 
-14.081482201605843

>  <r_i_glide_erotb>  (1) 
0

>  <r_i_glide_esite>  (1) 
0

>  <r_i_glide_evdw>  (1) 
-13.268578568519761

>  <r_i_glide_gscore>  (1) 
-4.6436315764285201

>  <r_i_glide_gscore_strain>  (1) 
0

>  <r_i_glide_hbond>  (1) 
0

>  <r_i_glide_ligand_efficiency>  (1) 
-0.58045394705356501

>  <r_i_glide_ligand_efficiency_ln>  (1) 
-1.507946006955345

>  <r_i_glide_ligand_efficiency_sa>  (1) 
-1.1609078941071302

>  <r_i_glide_lipo>  (1) 
-1.1738604564311672

>  <r_i_glide_metal>  (1) 
-0

>  <r_i_glide_rewards>  (1) 
-2.6844066466084531

>  <r_lp_Energy>  (1) 
15.613807

>  <r_lp_tautomer_probability>  (1) 
1

>  <s_epik_cmdline>  (1) 
J2VwaWtfcHl0aG9uJywgJy1waHQnLCAnMS4wJywgJy1waCcsICc3LjQnLCAnLXRuJywgJzgnLCAnLW1hJywgJzUwMCcsICctaW1hZScsICc8aW5maWxlLm1hZT4nLCAnLW9tYWUnLCAnPG91dGZpbGUubWFlPic=

>  <s_epik_input>  (1) 
TzFbQ0gyXVtDSDJdW0NASF0oW0NAXTEyW0NIM10pW0NIMl1bQ0gyXTI=

>  <s_glide_docking_method>  (1) 
confgen

>  <s_i_glide_gridfile>  (1) 
gpcr_drd2_6luq_protein_autoprepared_prepared

>  <s_lp_Force_Field>  (1) 
S-OPLS

>  <s_lp_Variant>  (1) 
Pocket2Mol_30-1

>  <s_m_source_file>  (1) 
generated_generic_title2_ligand_Pocket2Mol_2026-06-23_prepared.sdf

>  <GenAI_Model>  (1) 
Pocket2Mol

>  <Protein>  (1) 
generic_title2

$$$$
Pocket2Mol_19
     RDKit          3D

  0  0  0  0  0  0  0  0  0  0999 V3000
M  V30 BEGIN CTAB
M  V30 COUNTS 12 12 0 0 1
M  V30 BEGIN ATOM
M  V30 1 N 12.160029 8.790623 -7.977211 0
M  V30 2 C 11.401325 8.474786 -9.055546 0
M  V30 3 C 10.101663 7.934232 -8.957562 0
M  V30 4 C 11.611142 8.587940 -6.756505 0
M  V30 5 O 9.375666 7.645902 -10.084313 0
M  V30 6 C 9.563048 7.700693 -7.684589 0
M  V30 7 C 10.329880 8.037689 -6.559986 0
M  V30 8 H 11.844036 8.664625 -10.025118 0
M  V30 9 H 12.218832 8.869603 -5.910704 0
M  V30 10 H 8.412573 7.590260 -9.943094 0
M  V30 11 H 8.581976 7.277679 -7.573715 0
M  V30 12 H 9.942443 7.880179 -5.564104 0
M  V30 END ATOM
M  V30 BEGIN BOND
M  V30 1 2 2 1
M  V30 2 1 3 2
M  V30 3 1 4 1
M  V30 4 1 5 3
M  V30 5 2 6 3
M  V30 6 2 7 4
M  V30 7 1 7 6
M  V30 8 1 8 2
M  V30 9 1 9 4
M  V30 10 1 10 5
M  V30 11 1 11 6
M  V30 12 1 12 7
M  V30 END BOND
M  V30 END CTAB
M  END
>  <i_epik_Tot_Q>  (1) 
0

>  <i_epik_Tot_abs_Q>  (1) 
0

>  <i_i_glide_confnum>  (1) 
1

>  <i_i_glide_lignum>  (1) 
23

>  <i_i_glide_posenum>  (1) 
365

>  <i_i_glide_rotatable_bonds>  (1) 
1

>  <i_lp_mmshare_version>  (1) 
72125

>  <i_m_source_file_index>  (1) 
20

>  <i_f3d_flags>  (1) 
0

>  <num_sample>  (1) 
50

>  <b_lp_Chiralities_Consistent>  (1) 
1

>  <r_epik_Charging_Adjusted_Penalty>  (1) 
0.49104251329211085

>  <r_epik_Ionization_Penalty>  (1) 
0.049438115990627488

>  <r_epik_Ionization_Penalty_Charging>  (1) 
0

>  <r_epik_Ionization_Penalty_Neutral>  (1) 
0.049438115990627488

>  <r_epik_State_Penalty>  (1) 
0.49104251329211085

>  <r_glide_ring_energy>  (1) 
0

>  <r_i_docking_score>  (1) 
-4.6408380007593717

>  <r_i_glide_ecoul>  (1) 
-8.2270321227895113

>  <r_i_glide_eff_state_penalty>  (1) 
0.49104251329211085

>  <r_i_glide_einternal>  (1) 
0.15550763285968422

>  <r_i_glide_emodel>  (1) 
-26.208061653634218

>  <r_i_glide_emodel_strain>  (1) 
0.037827099343436643

>  <r_i_glide_energy>  (1) 
-19.614186852973464

>  <r_i_glide_erotb>  (1) 
0

>  <r_i_glide_esite>  (1) 
0

>  <r_i_glide_evdw>  (1) 
-11.387154730183953

>  <r_i_glide_gscore>  (1) 
-5.1318805140514829

>  <r_i_glide_gscore_strain>  (1) 
0

>  <r_i_glide_hbond>  (1) 
-0.16

>  <r_i_glide_ligand_efficiency>  (1) 
-0.66297685725133881

>  <r_i_glide_ligand_efficiency_ln>  (1) 
-1.5753494729795419

>  <r_i_glide_ligand_efficiency_sa>  (1) 
-1.2682291036925251

>  <r_i_glide_lipo>  (1) 
-0.67680129245719156

>  <r_i_glide_metal>  (1) 
-0

>  <r_i_glide_rewards>  (1) 
-2.4916666666666667

>  <r_lp_Energy>  (1) 
10.560834

>  <r_lp_tautomer_probability>  (1) 
0.43658000000000002

>  <s_epik_cmdline>  (1) 
J2VwaWtfcHl0aG9uJywgJy1waHQnLCAnMS4wJywgJy1waCcsICc3LjQnLCAnLXRuJywgJzgnLCAnLW1hJywgJzUwMCcsICctaW1hZScsICc8aW5maWxlLm1hZT4nLCAnLW9tYWUnLCAnPG91dGZpbGUubWFlPic=

>  <s_epik_input>  (1) 
W2NIXTFbY0hdW2NIXW5bY0hdYzFbT0hd

>  <s_glide_docking_method>  (1) 
confgen

>  <s_i_glide_gridfile>  (1) 
gpcr_drd2_6luq_protein_autoprepared_prepared

>  <s_lp_Force_Field>  (1) 
S-OPLS

>  <s_lp_Variant>  (1) 
Pocket2Mol_19-2

>  <s_m_source_file>  (1) 
generated_generic_title2_ligand_Pocket2Mol_2026-06-23_prepared.sdf

>  <GenAI_Model>  (1) 
Pocket2Mol

>  <Protein>  (1) 
generic_title2

$$$$
Pocket2Mol_30
     RDKit          3D

  0  0  0  0  0  0  0  0  0  0999 V3000
M  V30 BEGIN CTAB
M  V30 COUNTS 20 21 0 0 1
M  V30 BEGIN ATOM
M  V30 1 C 12.094140 7.590641 -7.984151 0
M  V30 2 O 11.775196 6.647066 -6.965490 0
M  V30 3 C 10.637885 7.055033 -6.207738 0 CFG=2
M  V30 4 C 10.818595 6.545072 -4.784974 0
M  V30 5 C 9.322660 6.822915 -6.965222 0
M  V30 6 C 11.663736 8.925543 -7.410762 0
M  V30 7 C 9.122037 8.336624 -7.049370 0
M  V30 8 C 10.534596 8.556045 -6.490086 0 CFG=1
M  V30 9 H 13.153650 7.590239 -8.239757 0
M  V30 10 H 11.523872 7.354534 -8.883531 0
M  V30 11 H 9.863229 6.390176 -4.288865 0
M  V30 12 H 11.407407 7.237802 -4.184474 0
M  V30 13 H 11.340186 5.590232 -4.772501 0
M  V30 14 H 9.451657 6.351634 -7.940161 0
M  V30 15 H 8.548279 6.320769 -6.385076 0
M  V30 16 H 12.480276 9.382409 -6.850785 0
M  V30 17 H 11.375534 9.590250 -8.218390 0
M  V30 18 H 8.975905 8.703945 -8.065911 0
M  V30 19 H 8.333247 8.689808 -6.385023 0
M  V30 20 H 10.500361 9.157882 -5.581664 0
M  V30 END ATOM
M  V30 BEGIN BOND
M  V30 1 1 2 1
M  V30 2 1 3 2
M  V30 3 1 3 4 CFG=1
M  V30 4 1 5 3
M  V30 5 1 6 1
M  V30 6 1 7 5
M  V30 7 1 8 3
M  V30 8 1 8 6
M  V30 9 1 8 7
M  V30 10 1 9 1
M  V30 11 1 10 1
M  V30 12 1 11 4
M  V30 13 1 12 4
M  V30 14 1 13 4
M  V30 15 1 14 5
M  V30 16 1 15 5
M  V30 17 1 16 6
M  V30 18 1 17 6
M  V30 19 1 18 7
M  V30 20 1 19 7
M  V30 21 1 8 20 CFG=1
M  V30 END BOND
M  V30 END CTAB
M  END
>  <i_epik_Tot_Q>  (1) 
0

>  <i_epik_Tot_abs_Q>  (1) 
0

>  <i_i_glide_confnum>  (1) 
1

>  <i_i_glide_lignum>  (1) 
34

>  <i_i_glide_posenum>  (1) 
80

>  <i_i_glide_rotatable_bonds>  (1) 
0

>  <i_lp_mmshare_version>  (1) 
72125

>  <i_m_source_file_index>  (1) 
31

>  <i_f3d_flags>  (1) 
0

>  <num_sample>  (1) 
50

>  <b_lp_Chiralities_Consistent>  (1) 
1

>  <r_epik_Charging_Adjusted_Penalty>  (1) 
0

>  <r_epik_Ionization_Penalty>  (1) 
2.3587344998035955e-11

>  <r_epik_Ionization_Penalty_Charging>  (1) 
0

>  <r_epik_Ionization_Penalty_Neutral>  (1) 
2.3587344998035955e-11

>  <r_epik_State_Penalty>  (1) 
-0

>  <r_glide_ring_energy>  (1) 
0

>  <r_i_docking_score>  (1) 
-4.6121890616854087

>  <r_i_glide_ecoul>  (1) 
-0.065906392072436398

>  <r_i_glide_eff_state_penalty>  (1) 
-0

>  <r_i_glide_einternal>  (1) 
0

>  <r_i_glide_emodel>  (1) 
-17.422010995640825

>  <r_i_glide_emodel_strain>  (1) 
0.21966472247655133

>  <r_i_glide_energy>  (1) 
-13.397001994260679

>  <r_i_glide_erotb>  (1) 
0

>  <r_i_glide_esite>  (1) 
0

>  <r_i_glide_evdw>  (1) 
-13.331095602188242

>  <r_i_glide_gscore>  (1) 
-4.6121890616854087

>  <r_i_glide_gscore_strain>  (1) 
0

>  <r_i_glide_hbond>  (1) 
0

>  <r_i_glide_ligand_efficiency>  (1) 
-0.57652363271067608

>  <r_i_glide_ligand_efficiency_ln>  (1) 
-1.4977355469360392

>  <r_i_glide_ligand_efficiency_sa>  (1) 
-1.1530472654213524

>  <r_i_glide_lipo>  (1) 
-1.1293685963832463

>  <r_i_glide_metal>  (1) 
-0

>  <r_i_glide_rewards>  (1) 
-2.8063797263818855

>  <r_lp_Energy>  (1) 
15.613807

>  <r_lp_tautomer_probability>  (1) 
1

>  <s_epik_cmdline>  (1) 
J2VwaWtfcHl0aG9uJywgJy1waHQnLCAnMS4wJywgJy1waCcsICc3LjQnLCAnLXRuJywgJzgnLCAnLW1hJywgJzUwMCcsICctaW1hZScsICc8aW5maWxlLm1hZT4nLCAnLW9tYWUnLCAnPG91dGZpbGUubWFlPic=

>  <s_epik_input>  (1) 
TzFbQ0gyXVtDSDJdW0NASF0oW0NAXTEyW0NIM10pW0NIMl1bQ0gyXTI=

>  <s_glide_docking_method>  (1) 
confgen

>  <s_i_glide_gridfile>  (1) 
gpcr_drd2_6luq_protein_autoprepared_prepared

>  <s_lp_Force_Field>  (1) 
S-OPLS

>  <s_lp_Variant>  (1) 
Pocket2Mol_30-1

>  <s_m_source_file>  (1) 
generated_generic_title2_ligand_Pocket2Mol_2026-06-23_prepared.sdf

>  <GenAI_Model>  (1) 
Pocket2Mol

>  <Protein>  (1) 
generic_title2

$$$$
Pocket2Mol_29
     RDKit          3D

  0  0  0  0  0  0  0  0  0  0999 V3000
M  V30 BEGIN CTAB
M  V30 COUNTS 14 14 0 0 1
M  V30 BEGIN ATOM
M  V30 1 N 11.070255 8.737460 -5.972533 0
M  V30 2 C 11.768560 9.588302 -5.193585 0
M  V30 3 C 12.346584 9.190235 -3.985462 0
M  V30 4 C 12.175306 7.861921 -3.608295 0
M  V30 5 O 12.703250 7.393621 -2.424508 0
M  V30 6 C 10.975409 7.481983 -5.501901 0
M  V30 7 N 11.484776 6.973400 -4.366447 0
M  V30 8 C 12.422388 6.059118 -2.028353 0
M  V30 9 H 11.861402 10.605406 -5.544190 0
M  V30 10 H 12.899775 9.882484 -3.368693 0
M  V30 11 H 10.419125 6.790813 -6.117050 0
M  V30 12 H 12.980525 5.819256 -1.127721 0
M  V30 13 H 11.359708 5.929419 -1.819810 0
M  V30 14 H 12.735568 5.345633 -2.785022 0
M  V30 END ATOM
M  V30 BEGIN BOND
M  V30 1 1 2 1
M  V30 2 2 3 2
M  V30 3 1 4 3
M  V30 4 1 5 4
M  V30 5 2 6 1
M  V30 6 2 7 4
M  V30 7 1 7 6
M  V30 8 1 8 5
M  V30 9 1 9 2
M  V30 10 1 10 3
M  V30 11 1 11 6
M  V30 12 1 12 8
M  V30 13 1 13 8
M  V30 14 1 14 8
M  V30 END BOND
M  V30 END CTAB
M  END
>  <i_epik_Tot_Q>  (1) 
0

>  <i_epik_Tot_abs_Q>  (1) 
0

>  <i_i_glide_confnum>  (1) 
1

>  <i_i_glide_lignum>  (1) 
33

>  <i_i_glide_posenum>  (1) 
332

>  <i_i_glide_rotatable_bonds>  (1) 
1

>  <i_lp_mmshare_version>  (1) 
72125

>  <i_m_source_file_index>  (1) 
30

>  <i_f3d_flags>  (1) 
0

>  <num_sample>  (1) 
50

>  <b_lp_Chiralities_Consistent>  (1) 
1

>  <r_epik_Charging_Adjusted_Penalty>  (1) 
0

>  <r_epik_Ionization_Penalty>  (1) 
8.6638422661064201e-06

>  <r_epik_Ionization_Penalty_Charging>  (1) 
0

>  <r_epik_Ionization_Penalty_Neutral>  (1) 
8.6638422661064201e-06

>  <r_epik_State_Penalty>  (1) 
-0

>  <r_glide_ring_energy>  (1) 
0

>  <r_i_docking_score>  (1) 
-4.6055229034706269

>  <r_i_glide_ecoul>  (1) 
-0.1389955483183456

>  <r_i_glide_eff_state_penalty>  (1) 
-0

>  <r_i_glide_einternal>  (1) 
0.0164721031962628

>  <r_i_glide_emodel>  (1) 
-24.067742312189278

>  <r_i_glide_emodel_strain>  (1) 
0

>  <r_i_glide_energy>  (1) 
-18.355254923660773

>  <r_i_glide_erotb>  (1) 
0

>  <r_i_glide_esite>  (1) 
0

>  <r_i_glide_evdw>  (1) 
-18.216259375342428

>  <r_i_glide_gscore>  (1) 
-4.6055229034706269

>  <r_i_glide_gscore_strain>  (1) 
0

>  <r_i_glide_hbond>  (1) 
0

>  <r_i_glide_ligand_efficiency>  (1) 
-0.57569036293382836

>  <r_i_glide_ligand_efficiency_ln>  (1) 
-1.4955708173496658

>  <r_i_glide_ligand_efficiency_sa>  (1) 
-1.1513807258676569

>  <r_i_glide_lipo>  (1) 
-1.0992656211953822

>  <r_i_glide_metal>  (1) 
-0

>  <r_i_glide_rewards>  (1) 
-2.5745949812603723

>  <r_lp_Energy>  (1) 
14.393509

>  <r_lp_tautomer_probability>  (1) 
1

>  <s_epik_cmdline>  (1) 
J2VwaWtfcHl0aG9uJywgJy1waHQnLCAnMS4wJywgJy1waCcsICc3LjQnLCAnLXRuJywgJzgnLCAnLW1hJywgJzUwMCcsICctaW1hZScsICc8aW5maWxlLm1hZT4nLCAnLW9tYWUnLCAnPG91dGZpbGUubWFlPic=

>  <s_epik_input>  (1) 
bjFbY0hdbltjSF1bY0hdYzFPW0NIM10=

>  <s_glide_docking_method>  (1) 
confgen

>  <s_i_glide_gridfile>  (1) 
gpcr_drd2_6luq_protein_autoprepared_prepared

>  <s_lp_Force_Field>  (1) 
S-OPLS

>  <s_lp_Variant>  (1) 
Pocket2Mol_29-1

>  <s_m_source_file>  (1) 
generated_generic_title2_ligand_Pocket2Mol_2026-06-23_prepared.sdf

>  <GenAI_Model>  (1) 
Pocket2Mol

>  <Protein>  (1) 
generic_title2

$$$$
Pocket2Mol_24
     RDKit          3D

  0  0  0  0  0  0  0  0  0  0999 V3000
M  V30 BEGIN CTAB
M  V30 COUNTS 15 15 0 0 1
M  V30 BEGIN ATOM
M  V30 1 N 11.492475 7.827661 -9.451168 0 CHG=1
M  V30 2 C 11.345713 7.901561 -8.090495 0
M  V30 3 C 9.998812 7.809437 -7.823059 0
M  V30 4 C 10.292727 7.694908 -10.016727 0
M  V30 5 C 9.241992 7.829195 -6.538417 0
M  V30 6 N 10.048363 7.592804 -11.322125 0
M  V30 7 N 9.380570 7.682496 -9.042819 0
M  V30 8 H 12.190409 8.011855 -7.425030 0
M  V30 9 H 9.925679 7.937621 -5.695827 0
M  V30 10 H 8.540941 8.664261 -6.523769 0
M  V30 11 H 8.683590 6.901077 -6.412618 0
M  V30 12 H 10.781427 7.608297 -12.017924 0
M  V30 13 H 9.114700 7.493717 -11.696662 0
M  V30 14 H 8.381648 7.592704 -9.185039 0
M  V30 15 H 12.372493 7.867403 -9.950311 0
M  V30 END ATOM
M  V30 BEGIN BOND
M  V30 1 1 2 1
M  V30 2 2 3 2
M  V30 3 2 4 1
M  V30 4 1 5 3
M  V30 5 1 6 4
M  V30 6 1 7 3
M  V30 7 1 7 4
M  V30 8 1 8 2
M  V30 9 1 9 5
M  V30 10 1 10 5
M  V30 11 1 11 5
M  V30 12 1 12 6
M  V30 13 1 13 6
M  V30 14 1 14 7
M  V30 15 1 15 1
M  V30 END BOND
M  V30 END CTAB
M  END
>  <i_epik_Tot_Q>  (1) 
1

>  <i_epik_Tot_abs_Q>  (1) 
1

>  <i_i_glide_confnum>  (1) 
1

>  <i_i_glide_lignum>  (1) 
28

>  <i_i_glide_posenum>  (1) 
137

>  <i_i_glide_rotatable_bonds>  (1) 
0

>  <i_lp_mmshare_version>  (1) 
72125

>  <i_m_source_file_index>  (1) 
25

>  <i_f3d_flags>  (1) 
0

>  <num_sample>  (1) 
50

>  <b_lp_Chiralities_Consistent>  (1) 
1

>  <r_epik_Charging_Adjusted_Penalty>  (1) 
0.028937443406262361

>  <r_epik_Ionization_Penalty>  (1) 
0.025358402846536118

>  <r_epik_Ionization_Penalty_Charging>  (1) 
0

>  <r_epik_Ionization_Penalty_Neutral>  (1) 
0.025358402846536118

>  <r_epik_State_Penalty>  (1) 
0.028937443406262361

>  <r_glide_ring_energy>  (1) 
0

>  <r_i_docking_score>  (1) 
-4.60217402209482

>  <r_i_glide_ecoul>  (1) 
-9.2543437076080615

>  <r_i_glide_eff_state_penalty>  (1) 
0.028937443406262361

>  <r_i_glide_einternal>  (1) 
0

>  <r_i_glide_emodel>  (1) 
-27.207377344874065

>  <r_i_glide_emodel_strain>  (1) 
0

>  <r_i_glide_energy>  (1) 
-18.051874145673409

>  <r_i_glide_erotb>  (1) 
0

>  <r_i_glide_esite>  (1) 
-0.19715908027097206

>  <r_i_glide_evdw>  (1) 
-8.7975304380653458

>  <r_i_glide_gscore>  (1) 
-4.6311114655010819

>  <r_i_glide_gscore_strain>  (1) 
0

>  <r_i_glide_hbond>  (1) 
-0.17124509861053644

>  <r_i_glide_ligand_efficiency>  (1) 
-0.65745343172783144

>  <r_i_glide_ligand_efficiency_ln>  (1) 
-1.5622248436771342

>  <r_i_glide_ligand_efficiency_sa>  (1) 
-1.2576631707728867

>  <r_i_glide_lipo>  (1) 
-0.18467920857509695

>  <r_i_glide_metal>  (1) 
-0

>  <r_i_glide_rewards>  (1) 
-2.25

>  <r_lp_Energy>  (1) 
-0.73901799999999995

>  <r_lp_tautomer_probability>  (1) 
0.99999998112300037

>  <s_epik_cmdline>  (1) 
J2VwaWtfcHl0aG9uJywgJy1waHQnLCAnMS4wJywgJy1waCcsICc3LjQnLCAnLXRuJywgJzgnLCAnLW1hJywgJzUwMCcsICctaW1hZScsICc8aW5maWxlLm1hZT4nLCAnLW9tYWUnLCAnPG91dGZpbGUubWFlPic=

>  <s_epik_input>  (1) 
W05IMl1jKFtuSF0xKW5bY0hdYzFbQ0gzXQ==

>  <s_glide_docking_method>  (1) 
confgen

>  <s_i_glide_gridfile>  (1) 
gpcr_drd2_6luq_protein_autoprepared_prepared

>  <s_lp_Force_Field>  (1) 
S-OPLS

>  <s_lp_Variant>  (1) 
Pocket2Mol_24-1

>  <s_m_source_file>  (1) 
generated_generic_title2_ligand_Pocket2Mol_2026-06-23_prepared.sdf

>  <GenAI_Model>  (1) 
Pocket2Mol

>  <Protein>  (1) 
generic_title2

$$$$
Pocket2Mol_9
     RDKit          3D

  0  0  0  0  0  0  0  0  0  0999 V3000
M  V30 BEGIN CTAB
M  V30 COUNTS 12 12 0 0 1
M  V30 BEGIN ATOM
M  V30 1 O 11.375261 8.140264 -5.178492 0
M  V30 2 C 11.536922 7.039799 -4.384921 0
M  V30 3 C 11.924960 9.176745 -4.492615 0
M  V30 4 C 12.175409 7.357257 -3.210974 0
M  V30 5 C 12.522309 6.429748 -2.076638 0
M  V30 6 C 12.425028 8.757787 -3.294348 0
M  V30 7 H 11.141747 6.120649 -4.794772 0
M  V30 8 H 11.876904 10.133971 -4.991212 0
M  V30 9 H 12.975210 6.987424 -1.257668 0
M  V30 10 H 11.615142 5.954001 -1.702581 0
M  V30 11 H 13.217609 5.649626 -2.385138 0
M  V30 12 H 12.909975 9.384357 -2.559983 0
M  V30 END ATOM
M  V30 BEGIN BOND
M  V30 1 1 2 1
M  V30 2 1 3 1
M  V30 3 2 4 2
M  V30 4 1 5 4
M  V30 5 2 6 3
M  V30 6 1 6 4
M  V30 7 1 7 2
M  V30 8 1 8 3
M  V30 9 1 9 5
M  V30 10 1 10 5
M  V30 11 1 11 5
M  V30 12 1 12 6
M  V30 END BOND
M  V30 END CTAB
M  END
>  <i_epik_Tot_Q>  (1) 
0

>  <i_epik_Tot_abs_Q>  (1) 
0

>  <i_i_glide_confnum>  (1) 
1

>  <i_i_glide_lignum>  (1) 
12

>  <i_i_glide_posenum>  (1) 
6

>  <i_i_glide_rotatable_bonds>  (1) 
0

>  <i_lp_mmshare_version>  (1) 
72125

>  <i_m_source_file_index>  (1) 
10

>  <i_f3d_flags>  (1) 
0

>  <num_sample>  (1) 
50

>  <b_lp_Chiralities_Consistent>  (1) 
1

>  <r_epik_Charging_Adjusted_Penalty>  (1) 
0

>  <r_epik_Ionization_Penalty>  (1) 
0

>  <r_epik_Ionization_Penalty_Charging>  (1) 
0

>  <r_epik_Ionization_Penalty_Neutral>  (1) 
0

>  <r_epik_State_Penalty>  (1) 
-0

>  <r_glide_ring_energy>  (1) 
0

>  <r_i_docking_score>  (1) 
-4.5860983921741774

>  <r_i_glide_ecoul>  (1) 
-0.92118857361483431

>  <r_i_glide_eff_state_penalty>  (1) 
-0

>  <r_i_glide_einternal>  (1) 
0

>  <r_i_glide_emodel>  (1) 
-18.782539971484912

>  <r_i_glide_emodel_strain>  (1) 
0

>  <r_i_glide_energy>  (1) 
-14.515781908553551

>  <r_i_glide_erotb>  (1) 
0

>  <r_i_glide_esite>  (1) 
0

>  <r_i_glide_evdw>  (1) 
-13.594593334938716

>  <r_i_glide_gscore>  (1) 
-4.5860983921741774

>  <r_i_glide_gscore_strain>  (1) 
0

>  <r_i_glide_hbond>  (1) 
0

>  <r_i_glide_ligand_efficiency>  (1) 
-0.76434973202902956

>  <r_i_glide_ligand_efficiency_ln>  (1) 
-1.6427269049228916

>  <r_i_glide_ligand_efficiency_sa>  (1) 
-1.3889156381956775

>  <r_i_glide_lipo>  (1) 
-1.3372938852091332

>  <r_i_glide_metal>  (1) 
-0

>  <r_i_glide_rewards>  (1) 
-2.4308965541758831

>  <r_lp_Energy>  (1) 
-1.206345

>  <r_lp_tautomer_probability>  (1) 
1

>  <s_epik_cmdline>  (1) 
J2VwaWtfcHl0aG9uJywgJy1waHQnLCAnMS4wJywgJy1waCcsICc3LjQnLCAnLXRuJywgJzgnLCAnLW1hJywgJzUwMCcsICctaW1hZScsICc8aW5maWxlLm1hZT4nLCAnLW9tYWUnLCAnPG91dGZpbGUubWFlPic=

>  <s_epik_input>  (1) 
W2NIXTFbY0hdb1tjSF1jMVtDSDNd

>  <s_glide_docking_method>  (1) 
confgen

>  <s_i_glide_gridfile>  (1) 
gpcr_drd2_6luq_protein_autoprepared_prepared

>  <s_lp_Force_Field>  (1) 
S-OPLS

>  <s_lp_Variant>  (1) 
Pocket2Mol_9-1

>  <s_m_source_file>  (1) 
generated_generic_title2_ligand_Pocket2Mol_2026-06-23_prepared.sdf

>  <GenAI_Model>  (1) 
Pocket2Mol

>  <Protein>  (1) 
generic_title2

$$$$
Pocket2Mol_9
     RDKit          3D

  0  0  0  0  0  0  0  0  0  0999 V3000
M  V30 BEGIN CTAB
M  V30 COUNTS 12 12 0 0 1
M  V30 BEGIN ATOM
M  V30 1 O 11.775003 6.702590 -3.763290 0
M  V30 2 C 11.375408 7.514915 -4.785025 0
M  V30 3 C 12.435324 7.502647 -2.887936 0
M  V30 4 C 11.775406 8.811168 -4.579242 0
M  V30 5 C 11.531318 9.996760 -5.472294 0
M  V30 6 C 12.467951 8.790136 -3.334515 0
M  V30 7 H 10.823631 7.019756 -5.571460 0
M  V30 8 H 12.816908 7.004642 -2.008963 0
M  V30 9 H 11.015306 10.786311 -4.924753 0
M  V30 10 H 12.475711 10.390227 -5.848283 0
M  V30 11 H 10.915483 9.712854 -6.325967 0
M  V30 12 H 12.933597 9.620531 -2.825690 0
M  V30 END ATOM
M  V30 BEGIN BOND
M  V30 1 1 2 1
M  V30 2 1 3 1
M  V30 3 2 4 2
M  V30 4 1 5 4
M  V30 5 2 6 3
M  V30 6 1 6 4
M  V30 7 1 7 2
M  V30 8 1 8 3
M  V30 9 1 9 5
M  V30 10 1 10 5
M  V30 11 1 11 5
M  V30 12 1 12 6
M  V30 END BOND
M  V30 END CTAB
M  END
>  <i_epik_Tot_Q>  (1) 
0

>  <i_epik_Tot_abs_Q>  (1) 
0

>  <i_i_glide_confnum>  (1) 
1

>  <i_i_glide_lignum>  (1) 
12

>  <i_i_glide_posenum>  (1) 
60

>  <i_i_glide_rotatable_bonds>  (1) 
0

>  <i_lp_mmshare_version>  (1) 
72125

>  <i_m_source_file_index>  (1) 
10

>  <i_f3d_flags>  (1) 
0

>  <num_sample>  (1) 
50

>  <b_lp_Chiralities_Consistent>  (1) 
1

>  <r_epik_Charging_Adjusted_Penalty>  (1) 
0

>  <r_epik_Ionization_Penalty>  (1) 
0

>  <r_epik_Ionization_Penalty_Charging>  (1) 
0

>  <r_epik_Ionization_Penalty_Neutral>  (1) 
0

>  <r_epik_State_Penalty>  (1) 
-0

>  <r_glide_ring_energy>  (1) 
0

>  <r_i_docking_score>  (1) 
-4.5849444641636774

>  <r_i_glide_ecoul>  (1) 
-0.34369148164998609

>  <r_i_glide_eff_state_penalty>  (1) 
-0

>  <r_i_glide_einternal>  (1) 
0

>  <r_i_glide_emodel>  (1) 
-18.726546643571499

>  <r_i_glide_emodel_strain>  (1) 
0.002021614475825384

>  <r_i_glide_energy>  (1) 
-14.46288377252792

>  <r_i_glide_erotb>  (1) 
0

>  <r_i_glide_esite>  (1) 
0

>  <r_i_glide_evdw>  (1) 
-14.119192290877935

>  <r_i_glide_gscore>  (1) 
-4.5849444641636774

>  <r_i_glide_gscore_strain>  (1) 
0

>  <r_i_glide_hbond>  (1) 
0

>  <r_i_glide_ligand_efficiency>  (1) 
-0.76415741069394627

>  <r_i_glide_ligand_efficiency_ln>  (1) 
-1.6423135713161754

>  <r_i_glide_ligand_efficiency_sa>  (1) 
-1.3885661671372567

>  <r_i_glide_lipo>  (1) 
-1.3759469777016051

>  <r_i_glide_metal>  (1) 
-0

>  <r_i_glide_rewards>  (1) 
-2.451484149670677

>  <r_lp_Energy>  (1) 
-1.206345

>  <r_lp_tautomer_probability>  (1) 
1

>  <s_epik_cmdline>  (1) 
J2VwaWtfcHl0aG9uJywgJy1waHQnLCAnMS4wJywgJy1waCcsICc3LjQnLCAnLXRuJywgJzgnLCAnLW1hJywgJzUwMCcsICctaW1hZScsICc8aW5maWxlLm1hZT4nLCAnLW9tYWUnLCAnPG91dGZpbGUubWFlPic=

>  <s_epik_input>  (1) 
W2NIXTFbY0hdb1tjSF1jMVtDSDNd

>  <s_glide_docking_method>  (1) 
confgen

>  <s_i_glide_gridfile>  (1) 
gpcr_drd2_6luq_protein_autoprepared_prepared

>  <s_lp_Force_Field>  (1) 
S-OPLS

>  <s_lp_Variant>  (1) 
Pocket2Mol_9-1

>  <s_m_source_file>  (1) 
generated_generic_title2_ligand_Pocket2Mol_2026-06-23_prepared.sdf

>  <GenAI_Model>  (1) 
Pocket2Mol

>  <Protein>  (1) 
generic_title2

$$$$
Pocket2Mol_24
     RDKit          3D

  0  0  0  0  0  0  0  0  0  0999 V3000
M  V30 BEGIN CTAB
M  V30 COUNTS 15 15 0 0 1
M  V30 BEGIN ATOM
M  V30 1 N 11.399476 7.945623 -8.474882 0 CHG=1
M  V30 2 C 11.463176 7.963279 -9.845744 0
M  V30 3 C 10.165796 7.813895 -10.308106 0
M  V30 4 C 10.139980 7.794886 -8.094297 0
M  V30 5 C 9.610035 7.758929 -11.686107 0
M  V30 6 N 9.705959 7.735314 -6.827268 0
M  V30 7 N 9.385109 7.713486 -9.177946 0
M  V30 8 H 12.388729 8.075534 -10.384619 0
M  V30 9 H 10.407307 7.857251 -12.422951 0
M  V30 10 H 9.102627 6.808371 -11.852422 0
M  V30 11 H 8.896187 8.568689 -11.839639 0
M  V30 12 H 10.327746 7.801907 -6.036816 0
M  V30 13 H 8.728814 7.618362 -6.594802 0
M  V30 14 H 8.363261 7.594634 -9.185044 0
M  V30 15 H 12.198175 8.034641 -7.856384 0
M  V30 END ATOM
M  V30 BEGIN BOND
M  V30 1 1 2 1
M  V30 2 2 3 2
M  V30 3 2 4 1
M  V30 4 1 5 3
M  V30 5 1 6 4
M  V30 6 1 7 3
M  V30 7 1 7 4
M  V30 8 1 8 2
M  V30 9 1 9 5
M  V30 10 1 10 5
M  V30 11 1 11 5
M  V30 12 1 12 6
M  V30 13 1 13 6
M  V30 14 1 14 7
M  V30 15 1 15 1
M  V30 END BOND
M  V30 END CTAB
M  END
>  <i_epik_Tot_Q>  (1) 
1

>  <i_epik_Tot_abs_Q>  (1) 
1

>  <i_i_glide_confnum>  (1) 
1

>  <i_i_glide_lignum>  (1) 
28

>  <i_i_glide_posenum>  (1) 
163

>  <i_i_glide_rotatable_bonds>  (1) 
0

>  <i_lp_mmshare_version>  (1) 
72125

>  <i_m_source_file_index>  (1) 
25

>  <i_f3d_flags>  (1) 
0

>  <num_sample>  (1) 
50

>  <b_lp_Chiralities_Consistent>  (1) 
1

>  <r_epik_Charging_Adjusted_Penalty>  (1) 
0.028937443406262361

>  <r_epik_Ionization_Penalty>  (1) 
0.025358402846536118

>  <r_epik_Ionization_Penalty_Charging>  (1) 
0

>  <r_epik_Ionization_Penalty_Neutral>  (1) 
0.025358402846536118

>  <r_epik_State_Penalty>  (1) 
0.028937443406262361

>  <r_glide_ring_energy>  (1) 
0

>  <r_i_docking_score>  (1) 
-4.5845264059386821

>  <r_i_glide_ecoul>  (1) 
-9.8668351077335217

>  <r_i_glide_eff_state_penalty>  (1) 
0.028937443406262361

>  <r_i_glide_einternal>  (1) 
0

>  <r_i_glide_emodel>  (1) 
-26.253843982696274

>  <r_i_glide_emodel_strain>  (1) 
0

>  <r_i_glide_energy>  (1) 
-17.133229342620012

>  <r_i_glide_erotb>  (1) 
0

>  <r_i_glide_esite>  (1) 
-0.17887826452011737

>  <r_i_glide_evdw>  (1) 
-7.2663942348864907

>  <r_i_glide_gscore>  (1) 
-4.613463849344944

>  <r_i_glide_gscore_strain>  (1) 
0

>  <r_i_glide_hbond>  (1) 
-0.16211400241137236

>  <r_i_glide_ligand_efficiency>  (1) 
-0.654932343705526

>  <r_i_glide_ligand_efficiency_ln>  (1) 
-1.5562342956755948

>  <r_i_glide_ligand_efficiency_sa>  (1) 
-1.2528405028805047

>  <r_i_glide_lipo>  (1) 
-0.17912660450910153

>  <r_i_glide_metal>  (1) 
-0

>  <r_i_glide_rewards>  (1) 
-2.25

>  <r_lp_Energy>  (1) 
-0.73901799999999995

>  <r_lp_tautomer_probability>  (1) 
0.99999998112300037

>  <s_epik_cmdline>  (1) 
J2VwaWtfcHl0aG9uJywgJy1waHQnLCAnMS4wJywgJy1waCcsICc3LjQnLCAnLXRuJywgJzgnLCAnLW1hJywgJzUwMCcsICctaW1hZScsICc8aW5maWxlLm1hZT4nLCAnLW9tYWUnLCAnPG91dGZpbGUubWFlPic=

>  <s_epik_input>  (1) 
W05IMl1jKFtuSF0xKW5bY0hdYzFbQ0gzXQ==

>  <s_glide_docking_method>  (1) 
confgen

>  <s_i_glide_gridfile>  (1) 
gpcr_drd2_6luq_protein_autoprepared_prepared

>  <s_lp_Force_Field>  (1) 
S-OPLS

>  <s_lp_Variant>  (1) 
Pocket2Mol_24-1

>  <s_m_source_file>  (1) 
generated_generic_title2_ligand_Pocket2Mol_2026-06-23_prepared.sdf

>  <GenAI_Model>  (1) 
Pocket2Mol

>  <Protein>  (1) 
generic_title2

$$$$
Pocket2Mol_16
     RDKit          3D

  0  0  0  0  0  0  0  0  0  0999 V3000
M  V30 BEGIN CTAB
M  V30 COUNTS 12 12 0 0 1
M  V30 BEGIN ATOM
M  V30 1 N 12.175412 7.748099 -3.210761 0
M  V30 2 C 11.574526 6.790227 -4.007345 0
M  V30 3 C 10.984520 7.067985 -5.189872 0
M  V30 4 C 10.975411 8.474880 -5.677869 0
M  V30 5 O 10.457604 8.790202 -6.745614 0
M  V30 6 C 12.181366 9.065248 -3.632370 0
M  V30 7 C 11.630224 9.477876 -4.793558 0
M  V30 8 H 11.614083 5.790708 -3.599899 0
M  V30 9 H 10.520818 6.298021 -5.789074 0
M  V30 10 H 12.599455 7.489748 -2.330200 0
M  V30 11 H 12.669177 9.744350 -2.947877 0
M  V30 12 H 11.649968 10.514072 -5.096571 0
M  V30 END ATOM
M  V30 BEGIN BOND
M  V30 1 1 2 1
M  V30 2 2 3 2
M  V30 3 1 4 3
M  V30 4 2 5 4
M  V30 5 1 6 1
M  V30 6 1 7 4
M  V30 7 2 7 6
M  V30 8 1 8 2
M  V30 9 1 9 3
M  V30 10 1 10 1
M  V30 11 1 11 6
M  V30 12 1 12 7
M  V30 END BOND
M  V30 END CTAB
M  END
>  <i_epik_Tot_Q>  (1) 
0

>  <i_epik_Tot_abs_Q>  (1) 
0

>  <i_i_glide_confnum>  (1) 
1

>  <i_i_glide_lignum>  (1) 
19

>  <i_i_glide_posenum>  (1) 
363

>  <i_i_glide_rotatable_bonds>  (1) 
0

>  <i_lp_mmshare_version>  (1) 
72125

>  <i_m_source_file_index>  (1) 
17

>  <i_f3d_flags>  (1) 
0

>  <num_sample>  (1) 
50

>  <b_lp_Chiralities_Consistent>  (1) 
1

>  <r_epik_Charging_Adjusted_Penalty>  (1) 
0.00011828912318149299

>  <r_epik_Ionization_Penalty>  (1) 
0.00011828912318149299

>  <r_epik_Ionization_Penalty_Charging>  (1) 
0.00011828912318149299

>  <r_epik_Ionization_Penalty_Neutral>  (1) 
0

>  <r_epik_State_Penalty>  (1) 
-0

>  <r_glide_ring_energy>  (1) 
0

>  <r_i_docking_score>  (1) 
-4.5817560735359066

>  <r_i_glide_ecoul>  (1) 
-0.40613161451623558

>  <r_i_glide_eff_state_penalty>  (1) 
-0

>  <r_i_glide_einternal>  (1) 
0

>  <r_i_glide_emodel>  (1) 
-23.022840830415973

>  <r_i_glide_emodel_strain>  (1) 
0

>  <r_i_glide_energy>  (1) 
-17.333294788606523

>  <r_i_glide_erotb>  (1) 
0

>  <r_i_glide_esite>  (1) 
0

>  <r_i_glide_evdw>  (1) 
-16.927163174090285

>  <r_i_glide_gscore>  (1) 
-4.5817560735359066

>  <r_i_glide_gscore_strain>  (1) 
0

>  <r_i_glide_hbond>  (1) 
0

>  <r_i_glide_ligand_efficiency>  (1) 
-0.6545365819337009

>  <r_i_glide_ligand_efficiency_ln>  (1) 
-1.5552938961852492

>  <r_i_glide_ligand_efficiency_sa>  (1) 
-1.2520834378462313

>  <r_i_glide_lipo>  (1) 
-1.4244781726539568

>  <r_i_glide_metal>  (1) 
-0

>  <r_i_glide_rewards>  (1) 
-2.25

>  <r_lp_Energy>  (1) 
8.1847359999999991

>  <r_lp_tautomer_probability>  (1) 
1

>  <s_epik_cmdline>  (1) 
J2VwaWtfcHl0aG9uJywgJy1waHQnLCAnMS4wJywgJy1waCcsICc3LjQnLCAnLXRuJywgJzgnLCAnLW1hJywgJzUwMCcsICctaW1hZScsICc8aW5maWxlLm1hZT4nLCAnLW9tYWUnLCAnPG91dGZpbGUubWFlPic=

>  <s_epik_input>  (1) 
W2NIXTFbY0hdbltjSF1bY0hdYzFbT0hd

>  <s_glide_docking_method>  (1) 
confgen

>  <s_i_glide_gridfile>  (1) 
gpcr_drd2_6luq_protein_autoprepared_prepared

>  <s_lp_Force_Field>  (1) 
S-OPLS

>  <s_lp_Variant>  (1) 
Pocket2Mol_16-1

>  <s_m_source_file>  (1) 
generated_generic_title2_ligand_Pocket2Mol_2026-06-23_prepared.sdf

>  <GenAI_Model>  (1) 
Pocket2Mol

>  <Protein>  (1) 
generic_title2

$$$$
Pocket2Mol_43
     RDKit          3D

  0  0  0  0  0  0  0  0  0  0999 V3000
M  V30 BEGIN CTAB
M  V30 COUNTS 8 8 0 0 1
M  V30 BEGIN ATOM
M  V30 1 N 11.686539 7.978499 -4.625639 0
M  V30 2 C 12.175866 8.981266 -3.780842 0
M  V30 3 C 12.493980 8.506382 -2.523896 0
M  V30 4 C 11.636328 6.790234 -4.035779 0
M  V30 5 S 12.175412 6.790227 -2.385026 0
M  V30 6 H 12.265379 9.990228 -4.149390 0
M  V30 7 H 12.889741 9.057434 -1.681878 0
M  V30 8 H 11.274467 5.923357 -4.570427 0
M  V30 END ATOM
M  V30 BEGIN BOND
M  V30 1 1 2 1
M  V30 2 2 3 2
M  V30 3 2 4 1
M  V30 4 1 5 3
M  V30 5 1 5 4
M  V30 6 1 6 2
M  V30 7 1 7 3
M  V30 8 1 8 4
M  V30 END BOND
M  V30 END CTAB
M  END
>  <i_epik_Tot_Q>  (1) 
0

>  <i_epik_Tot_abs_Q>  (1) 
0

>  <i_i_glide_confnum>  (1) 
1

>  <i_i_glide_lignum>  (1) 
48

>  <i_i_glide_posenum>  (1) 
65

>  <i_i_glide_rotatable_bonds>  (1) 
0

>  <i_lp_mmshare_version>  (1) 
72125

>  <i_m_source_file_index>  (1) 
44

>  <i_f3d_flags>  (1) 
0

>  <num_sample>  (1) 
50

>  <b_lp_Chiralities_Consistent>  (1) 
1

>  <r_epik_Charging_Adjusted_Penalty>  (1) 
0

>  <r_epik_Ionization_Penalty>  (1) 
1.4882382677604034e-05

>  <r_epik_Ionization_Penalty_Charging>  (1) 
0

>  <r_epik_Ionization_Penalty_Neutral>  (1) 
1.4882382677604034e-05

>  <r_epik_State_Penalty>  (1) 
-0

>  <r_glide_ring_energy>  (1) 
0

>  <r_i_docking_score>  (1) 
-4.5801769704643407

>  <r_i_glide_ecoul>  (1) 
-1.6958140145673191

>  <r_i_glide_eff_state_penalty>  (1) 
-0

>  <r_i_glide_einternal>  (1) 
0

>  <r_i_glide_emodel>  (1) 
-20.160620079568591

>  <r_i_glide_emodel_strain>  (1) 
0

>  <r_i_glide_energy>  (1) 
-15.472029092276594

>  <r_i_glide_erotb>  (1) 
0

>  <r_i_glide_esite>  (1) 
0

>  <r_i_glide_evdw>  (1) 
-13.776215077709276

>  <r_i_glide_gscore>  (1) 
-4.5801769704643407

>  <r_i_glide_gscore_strain>  (1) 
0

>  <r_i_glide_hbond>  (1) 
0

>  <r_i_glide_ligand_efficiency>  (1) 
-0.91603539409286816

>  <r_i_glide_ligand_efficiency_ln>  (1) 
-1.7552350828657663

>  <r_i_glide_ligand_efficiency_sa>  (1) 
-1.5663984902033135

>  <r_i_glide_lipo>  (1) 
-1.2067806147306539

>  <r_i_glide_metal>  (1) 
-0

>  <r_i_glide_rewards>  (1) 
-2.4302134996631248

>  <r_lp_Energy>  (1) 
1.6688799999999999

>  <r_lp_tautomer_probability>  (1) 
1

>  <s_epik_cmdline>  (1) 
J2VwaWtfcHl0aG9uJywgJy1waHQnLCAnMS4wJywgJy1waCcsICc3LjQnLCAnLXRuJywgJzgnLCAnLW1hJywgJzUwMCcsICctaW1hZScsICc8aW5maWxlLm1hZT4nLCAnLW9tYWUnLCAnPG91dGZpbGUubWFlPic=

>  <s_epik_input>  (1) 
bjFbY0hdW2NIXXNbY0hdMQ==

>  <s_glide_docking_method>  (1) 
confgen

>  <s_i_glide_gridfile>  (1) 
gpcr_drd2_6luq_protein_autoprepared_prepared

>  <s_lp_Force_Field>  (1) 
S-OPLS

>  <s_lp_Variant>  (1) 
Pocket2Mol_43-1

>  <s_m_source_file>  (1) 
generated_generic_title2_ligand_Pocket2Mol_2026-06-23_prepared.sdf

>  <GenAI_Model>  (1) 
Pocket2Mol

>  <Protein>  (1) 
generic_title2

$$$$
Pocket2Mol_4
     RDKit          3D

  0  0  0  0  0  0  0  0  0  0999 V3000
M  V30 BEGIN CTAB
M  V30 COUNTS 16 16 0 0 1
M  V30 BEGIN ATOM
M  V30 1 C 10.548821 7.076528 -5.585812 0
M  V30 2 O 11.375410 8.197522 -5.293322 0
M  V30 3 C 11.315291 9.212431 -6.289707 0
M  V30 4 C 11.791797 8.666015 -7.646313 0
M  V30 5 C 10.963053 7.442048 -8.045474 0
M  V30 6 C 10.975409 6.418837 -6.904795 0
M  V30 7 H 10.620014 6.359672 -4.767352 0
M  V30 8 H 9.506412 7.392911 -5.639953 0
M  V30 9 H 10.295296 9.590225 -6.366061 0
M  V30 10 H 11.941788 10.049507 -5.980499 0
M  V30 11 H 11.718296 9.436408 -8.414363 0
M  V30 12 H 12.845505 8.391652 -7.585014 0
M  V30 13 H 9.935515 7.744587 -8.255475 0
M  V30 14 H 11.352376 6.997685 -8.961674 0
M  V30 15 H 11.973837 5.996655 -6.785024 0
M  V30 16 H 10.309607 5.590231 -7.144901 0
M  V30 END ATOM
M  V30 BEGIN BOND
M  V30 1 1 2 1
M  V30 2 1 3 2
M  V30 3 1 4 3
M  V30 4 1 5 4
M  V30 5 1 6 1
M  V30 6 1 6 5
M  V30 7 1 7 1
M  V30 8 1 8 1
M  V30 9 1 9 3
M  V30 10 1 10 3
M  V30 11 1 11 4
M  V30 12 1 12 4
M  V30 13 1 13 5
M  V30 14 1 14 5
M  V30 15 1 15 6
M  V30 16 1 16 6
M  V30 END BOND
M  V30 END CTAB
M  END
>  <i_epik_Tot_Q>  (1) 
0

>  <i_epik_Tot_abs_Q>  (1) 
0

>  <i_i_glide_confnum>  (1) 
2

>  <i_i_glide_lignum>  (1) 
5

>  <i_i_glide_posenum>  (1) 
337

>  <i_i_glide_rotatable_bonds>  (1) 
0

>  <i_lp_mmshare_version>  (1) 
72125

>  <i_m_source_file_index>  (1) 
5

>  <i_f3d_flags>  (1) 
0

>  <num_sample>  (1) 
50

>  <b_lp_Chiralities_Consistent>  (1) 
1

>  <r_epik_Charging_Adjusted_Penalty>  (1) 
0

>  <r_epik_Ionization_Penalty>  (1) 
1.5229185111393156e-11

>  <r_epik_Ionization_Penalty_Charging>  (1) 
0

>  <r_epik_Ionization_Penalty_Neutral>  (1) 
1.5229185111393156e-11

>  <r_epik_State_Penalty>  (1) 
-0

>  <r_glide_ring_energy>  (1) 
0.00023819064548269558

>  <r_i_docking_score>  (1) 
-4.5577862548477919

>  <r_i_glide_ecoul>  (1) 
-0.71985406874925995

>  <r_i_glide_eff_state_penalty>  (1) 
-0

>  <r_i_glide_einternal>  (1) 
0

>  <r_i_glide_emodel>  (1) 
-19.041637618287496

>  <r_i_glide_emodel_strain>  (1) 
0

>  <r_i_glide_energy>  (1) 
-14.701721908448201

>  <r_i_glide_erotb>  (1) 
0

>  <r_i_glide_esite>  (1) 
0

>  <r_i_glide_evdw>  (1) 
-13.981867839698941

>  <r_i_glide_gscore>  (1) 
-4.5577862548477919

>  <r_i_glide_gscore_strain>  (1) 
0

>  <r_i_glide_hbond>  (1) 
0

>  <r_i_glide_ligand_efficiency>  (1) 
-0.75963104247463198

>  <r_i_glide_ligand_efficiency_ln>  (1) 
-1.6325855809161303

>  <r_i_glide_ligand_efficiency_sa>  (1) 
-1.3803412102351997

>  <r_i_glide_lipo>  (1) 
-1.1179570093325304

>  <r_i_glide_metal>  (1) 
-0

>  <r_i_glide_rewards>  (1) 
-2.6327577432179252

>  <r_lp_Energy>  (1) 
2.9645999999999999

>  <r_lp_tautomer_probability>  (1) 
1

>  <s_epik_cmdline>  (1) 
J2VwaWtfcHl0aG9uJywgJy1waHQnLCAnMS4wJywgJy1waCcsICc3LjQnLCAnLXRuJywgJzgnLCAnLW1hJywgJzUwMCcsICctaW1hZScsICc8aW5maWxlLm1hZT4nLCAnLW9tYWUnLCAnPG91dGZpbGUubWFlPic=

>  <s_epik_input>  (1) 
W0NIMl0xT1tDSDJdW0NIMl1bQ0gyXVtDSDJdMQ==

>  <s_glide_docking_method>  (1) 
confgen

>  <s_i_glide_gridfile>  (1) 
gpcr_drd2_6luq_protein_autoprepared_prepared

>  <s_lp_Force_Field>  (1) 
S-OPLS

>  <s_lp_Variant>  (1) 
Pocket2Mol_4-1

>  <s_m_source_file>  (1) 
generated_generic_title2_ligand_Pocket2Mol_2026-06-23_prepared.sdf

>  <GenAI_Model>  (1) 
Pocket2Mol

>  <Protein>  (1) 
generic_title2

$$$$
Pocket2Mol_7
     RDKit          3D

  0  0  0  0  0  0  0  0  0  0999 V3000
M  V30 BEGIN CTAB
M  V30 COUNTS 13 13 0 0 1
M  V30 BEGIN ATOM
M  V30 1 N 11.195369 8.295982 -5.683864 0
M  V30 2 C 11.375408 8.789742 -6.942964 0
M  V30 3 C 10.901098 8.047926 -7.900318 0
M  V30 4 C 10.574822 7.190236 -5.985023 0
M  V30 5 C 10.974989 8.376434 -9.376008 0
M  V30 6 C 10.247490 6.800925 -7.478085 0
M  V30 7 H 11.882404 9.734349 -7.072020 0
M  V30 8 H 10.247219 6.475341 -5.225257 0
M  V30 9 H 11.515048 7.595556 -9.911489 0
M  V30 10 H 9.969770 8.447542 -9.793500 0
M  V30 11 H 11.485520 9.324996 -9.545984 0
M  V30 12 H 10.766646 5.898713 -7.801568 0
M  V30 13 H 9.175491 6.778984 -7.681271 0
M  V30 END ATOM
M  V30 BEGIN BOND
M  V30 1 1 2 1
M  V30 2 2 3 2
M  V30 3 2 4 1
M  V30 4 1 5 3
M  V30 5 1 6 3
M  V30 6 1 6 4
M  V30 7 1 7 2
M  V30 8 1 8 4
M  V30 9 1 9 5
M  V30 10 1 10 5
M  V30 11 1 11 5
M  V30 12 1 12 6
M  V30 13 1 13 6
M  V30 END BOND
M  V30 END CTAB
M  END
>  <i_epik_Tot_Q>  (1) 
0

>  <i_epik_Tot_abs_Q>  (1) 
0

>  <i_i_glide_confnum>  (1) 
1

>  <i_i_glide_lignum>  (1) 
8

>  <i_i_glide_posenum>  (1) 
107

>  <i_i_glide_rotatable_bonds>  (1) 
0

>  <i_lp_mmshare_version>  (1) 
72125

>  <i_m_source_file_index>  (1) 
8

>  <i_f3d_flags>  (1) 
0

>  <num_sample>  (1) 
50

>  <b_lp_Chiralities_Consistent>  (1) 
1

>  <r_epik_Charging_Adjusted_Penalty>  (1) 
0

>  <r_epik_Ionization_Penalty>  (1) 
0

>  <r_epik_Ionization_Penalty_Charging>  (1) 
0

>  <r_epik_Ionization_Penalty_Neutral>  (1) 
0

>  <r_epik_State_Penalty>  (1) 
-0

>  <r_glide_ring_energy>  (1) 
0

>  <r_i_docking_score>  (1) 
-4.5464713510798056

>  <r_i_glide_ecoul>  (1) 
-1.3535807223032688

>  <r_i_glide_eff_state_penalty>  (1) 
-0

>  <r_i_glide_einternal>  (1) 
0

>  <r_i_glide_emodel>  (1) 
-21.533849879877565

>  <r_i_glide_emodel_strain>  (1) 
0

>  <r_i_glide_energy>  (1) 
-16.506689689450042

>  <r_i_glide_erotb>  (1) 
0

>  <r_i_glide_esite>  (1) 
0

>  <r_i_glide_evdw>  (1) 
-15.153108967146775

>  <r_i_glide_gscore>  (1) 
-4.5464713510798056

>  <r_i_glide_gscore_strain>  (1) 
0

>  <r_i_glide_hbond>  (1) 
0

>  <r_i_glide_ligand_efficiency>  (1) 
-0.75774522517996756

>  <r_i_glide_ligand_efficiency_ln>  (1) 
-1.6285326157904798

>  <r_i_glide_ligand_efficiency_sa>  (1) 
-1.3769144527947461

>  <r_i_glide_lipo>  (1) 
-0.57061339249843446

>  <r_i_glide_metal>  (1) 
-0

>  <r_i_glide_rewards>  (1) 
-3.0151654018785421

>  <r_lp_Energy>  (1) 
-3.9959819999999997

>  <r_lp_tautomer_probability>  (1) 
1

>  <s_epik_Chemistry_Notes>  (1) 
This compound has an imine and may undergo hydrolysis.

>  <s_epik_cmdline>  (1) 
J2VwaWtfcHl0aG9uJywgJy1waHQnLCAnMS4wJywgJy1waCcsICc3LjQnLCAnLXRuJywgJzgnLCAnLW1hJywgJzUwMCcsICctaW1hZScsICc8aW5maWxlLm1hZT4nLCAnLW9tYWUnLCAnPG91dGZpbGUubWFlPic=

>  <s_epik_input>  (1) 
W0NIMl0xW0NIXT1OW0NIXT1DMVtDSDNd

>  <s_glide_docking_method>  (1) 
confgen

>  <s_i_glide_gridfile>  (1) 
gpcr_drd2_6luq_protein_autoprepared_prepared

>  <s_lp_Force_Field>  (1) 
S-OPLS

>  <s_lp_Variant>  (1) 
Pocket2Mol_7-1

>  <s_m_source_file>  (1) 
generated_generic_title2_ligand_Pocket2Mol_2026-06-23_prepared.sdf

>  <GenAI_Model>  (1) 
Pocket2Mol

>  <Protein>  (1) 
generic_title2

$$$$
Pocket2Mol_20
     RDKit          3D

  0  0  0  0  0  0  0  0  0  0999 V3000
M  V30 BEGIN CTAB
M  V30 COUNTS 12 12 0 0 1
M  V30 BEGIN ATOM
M  V30 1 N 12.225895 7.880652 -2.399010 0
M  V30 2 C 11.814960 6.778741 -3.059088 0
M  V30 3 C 11.375400 6.823416 -4.385025 0
M  V30 4 C 11.375410 8.070151 -5.014162 0
M  V30 5 N 10.948147 8.195323 -6.329451 0
M  V30 6 N 11.779310 9.190291 -4.385809 0
M  V30 7 C 12.175435 9.016347 -3.113724 0
M  V30 8 H 11.838363 5.846990 -2.514203 0
M  V30 9 H 11.046995 5.931893 -4.898127 0
M  V30 10 H 10.592572 7.404190 -6.846466 0
M  V30 11 H 10.908655 9.094397 -6.784980 0
M  V30 12 H 12.493625 9.908758 -2.597299 0
M  V30 END ATOM
M  V30 BEGIN BOND
M  V30 1 1 2 1
M  V30 2 2 3 2
M  V30 3 1 4 3
M  V30 4 1 5 4
M  V30 5 2 6 4
M  V30 6 2 7 1
M  V30 7 1 7 6
M  V30 8 1 8 2
M  V30 9 1 9 3
M  V30 10 1 10 5
M  V30 11 1 11 5
M  V30 12 1 12 7
M  V30 END BOND
M  V30 END CTAB
M  END
>  <i_epik_Tot_Q>  (1) 
0

>  <i_epik_Tot_abs_Q>  (1) 
0

>  <i_i_glide_confnum>  (1) 
1

>  <i_i_glide_lignum>  (1) 
24

>  <i_i_glide_posenum>  (1) 
117

>  <i_i_glide_rotatable_bonds>  (1) 
0

>  <i_lp_mmshare_version>  (1) 
72125

>  <i_m_source_file_index>  (1) 
21

>  <i_f3d_flags>  (1) 
0

>  <num_sample>  (1) 
50

>  <b_lp_Chiralities_Consistent>  (1) 
1

>  <r_epik_Charging_Adjusted_Penalty>  (1) 
0.011441366301234922

>  <r_epik_Ionization_Penalty>  (1) 
0.011523414685131987

>  <r_epik_Ionization_Penalty_Charging>  (1) 
0

>  <r_epik_Ionization_Penalty_Neutral>  (1) 
0.011523414685131987

>  <r_epik_State_Penalty>  (1) 
0.011441366301234922

>  <r_glide_ring_energy>  (1) 
0

>  <r_i_docking_score>  (1) 
-4.5459313062434905

>  <r_i_glide_ecoul>  (1) 
-1.6424521296021695

>  <r_i_glide_eff_state_penalty>  (1) 
0.011441366301234922

>  <r_i_glide_einternal>  (1) 
0

>  <r_i_glide_emodel>  (1) 
-24.425579378369175

>  <r_i_glide_emodel_strain>  (1) 
0

>  <r_i_glide_energy>  (1) 
-18.705983711171331

>  <r_i_glide_erotb>  (1) 
0

>  <r_i_glide_esite>  (1) 
0

>  <r_i_glide_evdw>  (1) 
-17.063531581569162

>  <r_i_glide_gscore>  (1) 
-4.5573726725447257

>  <r_i_glide_gscore_strain>  (1) 
0

>  <r_i_glide_hbond>  (1) 
0

>  <r_i_glide_ligand_efficiency>  (1) 
-0.64941875803478433

>  <r_i_glide_ligand_efficiency_ln>  (1) 
-1.5431330475918512

>  <r_i_glide_ligand_efficiency_sa>  (1) 
-1.2422933929220561

>  <r_i_glide_lipo>  (1) 
-0.75782827402594133

>  <r_i_glide_metal>  (1) 
-0

>  <r_i_glide_rewards>  (1) 
-2.7000000000000002

>  <r_lp_Energy>  (1) 
9.3523319999999988

>  <r_lp_tautomer_probability>  (1) 
0.9999995832001739

>  <s_epik_cmdline>  (1) 
J2VwaWtfcHl0aG9uJywgJy1waHQnLCAnMS4wJywgJy1waCcsICc3LjQnLCAnLXRuJywgJzgnLCAnLW1hJywgJzUwMCcsICctaW1hZScsICc8aW5maWxlLm1hZT4nLCAnLW9tYWUnLCAnPG91dGZpbGUubWFlPic=

>  <s_epik_input>  (1) 
bjFbY0hdbltjSF1bY0hdYzFbTkgyXQ==

>  <s_glide_docking_method>  (1) 
confgen

>  <s_i_glide_gridfile>  (1) 
gpcr_drd2_6luq_protein_autoprepared_prepared

>  <s_lp_Force_Field>  (1) 
S-OPLS

>  <s_lp_Variant>  (1) 
Pocket2Mol_20-1

>  <s_m_source_file>  (1) 
generated_generic_title2_ligand_Pocket2Mol_2026-06-23_prepared.sdf

>  <GenAI_Model>  (1) 
Pocket2Mol

>  <Protein>  (1) 
generic_title2

$$$$
Pocket2Mol_39
     RDKit          3D

  0  0  0  0  0  0  0  0  0  0999 V3000
M  V30 BEGIN CTAB
M  V30 COUNTS 14 14 0 0 1
M  V30 BEGIN ATOM
M  V30 1 C 10.280949 6.793048 -8.650544 0
M  V30 2 O 9.375411 7.333146 -7.704882 0
M  V30 3 C 9.907999 8.191559 -6.775431 0
M  V30 4 C 11.284776 7.864158 -9.073922 0
M  V30 5 O 11.971317 8.317995 -7.918350 0
M  V30 6 C 11.171649 8.673808 -6.853022 0
M  V30 7 C 11.775410 9.641360 -5.791429 0
M  V30 8 O 12.959582 9.990227 -5.985025 0 CHG=-1
M  V30 9 O 11.016723 9.974473 -4.852350 0
M  V30 10 H 9.721403 6.427272 -9.511666 0
M  V30 11 H 10.794600 5.939283 -8.207487 0
M  V30 12 H 9.210820 8.422872 -5.985024 0
M  V30 13 H 10.780767 8.702037 -9.558455 0
M  V30 14 H 12.004417 7.460219 -9.785900 0
M  V30 END ATOM
M  V30 BEGIN BOND
M  V30 1 1 2 1
M  V30 2 1 3 2
M  V30 3 1 4 1
M  V30 4 1 5 4
M  V30 5 2 6 3
M  V30 6 1 6 5
M  V30 7 1 7 6
M  V30 8 1 8 7
M  V30 9 2 9 7
M  V30 10 1 10 1
M  V30 11 1 11 1
M  V30 12 1 12 3
M  V30 13 1 13 4
M  V30 14 1 14 4
M  V30 END BOND
M  V30 END CTAB
M  END
>  <i_epik_Tot_Q>  (1) 
-1

>  <i_epik_Tot_abs_Q>  (1) 
1

>  <i_i_glide_confnum>  (1) 
1

>  <i_i_glide_lignum>  (1) 
44

>  <i_i_glide_posenum>  (1) 
188

>  <i_i_glide_rotatable_bonds>  (1) 
1

>  <i_lp_mmshare_version>  (1) 
72125

>  <i_m_source_file_index>  (1) 
40

>  <i_f3d_flags>  (1) 
0

>  <num_sample>  (1) 
50

>  <b_lp_Chiralities_Consistent>  (1) 
1

>  <r_epik_Charging_Adjusted_Penalty>  (1) 
1.9393830553820406e-05

>  <r_epik_Ionization_Penalty>  (1) 
1.9393830553820406e-05

>  <r_epik_Ionization_Penalty_Charging>  (1) 
1.9393830553820406e-05

>  <r_epik_Ionization_Penalty_Neutral>  (1) 
0

>  <r_epik_State_Penalty>  (1) 
-0

>  <r_glide_ring_energy>  (1) 
0

>  <r_i_docking_score>  (1) 
-4.5423965445238155

>  <r_i_glide_ecoul>  (1) 
-0.48576116491686083

>  <r_i_glide_eff_state_penalty>  (1) 
-0

>  <r_i_glide_einternal>  (1) 
0.0017189055391393371

>  <r_i_glide_emodel>  (1) 
-23.971013420955952

>  <r_i_glide_emodel_strain>  (1) 
0

>  <r_i_glide_energy>  (1) 
-17.297824681325078

>  <r_i_glide_erotb>  (1) 
0

>  <r_i_glide_esite>  (1) 
0

>  <r_i_glide_evdw>  (1) 
-16.812063516408216

>  <r_i_glide_gscore>  (1) 
-4.5423965445238155

>  <r_i_glide_gscore_strain>  (1) 
0

>  <r_i_glide_hbond>  (1) 
0

>  <r_i_glide_ligand_efficiency>  (1) 
-0.50471072716931287

>  <r_i_glide_ligand_efficiency_ln>  (1) 
-1.4207311481098182

>  <r_i_glide_ligand_efficiency_sa>  (1) 
-1.0498406189056508

>  <r_i_glide_lipo>  (1) 
-0.49559586063254157

>  <r_i_glide_metal>  (1) 
-0

>  <r_i_glide_rewards>  (1) 
-3.1333333333333333

>  <r_lp_Energy>  (1) 
18.695968999999998

>  <r_lp_tautomer_probability>  (1) 
1

>  <s_epik_cmdline>  (1) 
J2VwaWtfcHl0aG9uJywgJy1waHQnLCAnMS4wJywgJy1waCcsICc3LjQnLCAnLXRuJywgJzgnLCAnLW1hJywgJzUwMCcsICctaW1hZScsICc8aW5maWxlLm1hZT4nLCAnLW9tYWUnLCAnPG91dGZpbGUubWFlPic=

>  <s_epik_input>  (1) 
TzFbQ0gyXVtDSDJdT1tDSF09QzFDKD1PKVtPSF0=

>  <s_glide_docking_method>  (1) 
confgen

>  <s_i_glide_gridfile>  (1) 
gpcr_drd2_6luq_protein_autoprepared_prepared

>  <s_lp_Force_Field>  (1) 
S-OPLS

>  <s_lp_Variant>  (1) 
Pocket2Mol_39-1

>  <s_m_source_file>  (1) 
generated_generic_title2_ligand_Pocket2Mol_2026-06-23_prepared.sdf

>  <GenAI_Model>  (1) 
Pocket2Mol

>  <Protein>  (1) 
generic_title2

$$$$
Pocket2Mol_35
     RDKit          3D

  0  0  0  0  0  0  0  0  0  0999 V3000
M  V30 BEGIN CTAB
M  V30 COUNTS 15 16 0 0 1
M  V30 BEGIN ATOM
M  V30 1 C 11.863150 9.190246 -5.084082 0
M  V30 2 O 10.917768 8.084628 -5.185025 0
M  V30 3 C 10.879333 7.940173 -6.511256 0
M  V30 4 C 11.689186 8.766239 -7.172706 0
M  V30 5 C 11.775410 8.750766 -8.576127 0
M  V30 6 C 10.975427 7.832799 -9.295672 0
M  V30 7 C 10.112403 6.954743 -8.589778 0
M  V30 8 C 10.065416 7.010132 -7.177415 0
M  V30 9 O 12.390101 9.590456 -6.385026 0
M  V30 10 H 12.688117 8.897857 -4.433068 0
M  V30 11 H 11.355085 10.044555 -4.634295 0
M  V30 12 H 12.437203 9.426955 -9.096310 0
M  V30 13 H 11.019637 7.801051 -10.374311 0
M  V30 14 H 9.493479 6.250794 -9.127344 0
M  V30 15 H 9.413562 6.351506 -6.621958 0
M  V30 END ATOM
M  V30 BEGIN BOND
M  V30 1 1 2 1
M  V30 2 1 3 2
M  V30 3 1 4 3
M  V30 4 2 5 4
M  V30 5 1 6 5
M  V30 6 2 7 6
M  V30 7 2 8 3
M  V30 8 1 8 7
M  V30 9 1 9 1
M  V30 10 1 9 4
M  V30 11 1 10 1
M  V30 12 1 11 1
M  V30 13 1 12 5
M  V30 14 1 13 6
M  V30 15 1 14 7
M  V30 16 1 15 8
M  V30 END BOND
M  V30 END CTAB
M  END
>  <i_epik_Tot_Q>  (1) 
0

>  <i_epik_Tot_abs_Q>  (1) 
0

>  <i_i_glide_confnum>  (1) 
1

>  <i_i_glide_lignum>  (1) 
40

>  <i_i_glide_posenum>  (1) 
273

>  <i_i_glide_rotatable_bonds>  (1) 
0

>  <i_lp_mmshare_version>  (1) 
72125

>  <i_m_source_file_index>  (1) 
36

>  <i_f3d_flags>  (1) 
0

>  <num_sample>  (1) 
50

>  <b_lp_Chiralities_Consistent>  (1) 
1

>  <r_epik_Charging_Adjusted_Penalty>  (1) 
0

>  <r_epik_Ionization_Penalty>  (1) 
0

>  <r_epik_Ionization_Penalty_Charging>  (1) 
0

>  <r_epik_Ionization_Penalty_Neutral>  (1) 
0

>  <r_epik_State_Penalty>  (1) 
-0

>  <r_glide_ring_energy>  (1) 
0

>  <r_i_docking_score>  (1) 
-4.5387938313199498

>  <r_i_glide_ecoul>  (1) 
-0.49533404022170779

>  <r_i_glide_eff_state_penalty>  (1) 
-0

>  <r_i_glide_einternal>  (1) 
0

>  <r_i_glide_emodel>  (1) 
-24.606820328257438

>  <r_i_glide_emodel_strain>  (1) 
0

>  <r_i_glide_energy>  (1) 
-18.754106254937064

>  <r_i_glide_erotb>  (1) 
0

>  <r_i_glide_esite>  (1) 
0

>  <r_i_glide_evdw>  (1) 
-18.258772214715357

>  <r_i_glide_gscore>  (1) 
-4.5387938313199498

>  <r_i_glide_gscore_strain>  (1) 
0

>  <r_i_glide_hbond>  (1) 
0

>  <r_i_glide_ligand_efficiency>  (1) 
-0.50431042570221662

>  <r_i_glide_ligand_efficiency_ln>  (1) 
-1.4196043229160538

>  <r_i_glide_ligand_efficiency_sa>  (1) 
-1.0490079582996001

>  <r_i_glide_lipo>  (1) 
-0.85155511455092581

>  <r_i_glide_metal>  (1) 
-0

>  <r_i_glide_rewards>  (1) 
-2.7000000000000002

>  <r_lp_Energy>  (1) 
19.342482

>  <r_lp_tautomer_probability>  (1) 
1

>  <s_epik_Chemistry_Notes>  (1) 
This compound contains an acetal/aminal-like group ( X-CH(R)-Y where X, Y are N, S, or O) that may be acid/base labile, releasing an aldehyde.

>  <s_epik_cmdline>  (1) 
J2VwaWtfcHl0aG9uJywgJy1waHQnLCAnMS4wJywgJy1waCcsICc3LjQnLCAnLXRuJywgJzgnLCAnLW1hJywgJzUwMCcsICctaW1hZScsICc8aW5maWxlLm1hZT4nLCAnLW9tYWUnLCAnPG91dGZpbGUubWFlPic=

>  <s_epik_input>  (1) 
TzFbQ0gyXU9jKGMxMilbY0hdW2NIXVtjSF1bY0hdMg==

>  <s_glide_docking_method>  (1) 
confgen

>  <s_i_glide_gridfile>  (1) 
gpcr_drd2_6luq_protein_autoprepared_prepared

>  <s_lp_Force_Field>  (1) 
S-OPLS

>  <s_lp_Variant>  (1) 
Pocket2Mol_35-1

>  <s_m_source_file>  (1) 
generated_generic_title2_ligand_Pocket2Mol_2026-06-23_prepared.sdf

>  <GenAI_Model>  (1) 
Pocket2Mol

>  <Protein>  (1) 
generic_title2

$$$$
Pocket2Mol_24
     RDKit          3D

  0  0  0  0  0  0  0  0  0  0999 V3000
M  V30 BEGIN CTAB
M  V30 COUNTS 15 15 0 0 1
M  V30 BEGIN ATOM
M  V30 1 N 9.375730 7.670161 -9.675014 0 CHG=1
M  V30 2 C 10.236086 8.099683 -8.700717 0
M  V30 3 C 11.507582 8.059038 -9.248946 0
M  V30 4 C 10.050270 7.380683 -10.769913 0
M  V30 5 C 12.844423 8.411911 -8.687476 0
M  V30 6 N 9.528508 6.946291 -11.914471 0
M  V30 7 N 11.334868 7.598845 -10.538955 0
M  V30 8 H 9.893925 8.397717 -7.718724 0
M  V30 9 H 12.753891 8.742414 -7.653653 0
M  V30 10 H 13.536976 7.585932 -8.712033 0
M  V30 11 H 13.307570 9.188595 -9.276555 0
M  V30 12 H 8.535474 6.802348 -12.035551 0
M  V30 13 H 10.095941 6.735454 -12.723488 0
M  V30 14 H 12.074286 7.458669 -11.213588 0
M  V30 15 H 8.336540 7.590250 -9.570829 0
M  V30 END ATOM
M  V30 BEGIN BOND
M  V30 1 1 2 1
M  V30 2 2 3 2
M  V30 3 2 4 1
M  V30 4 1 5 3
M  V30 5 1 6 4
M  V30 6 1 7 3
M  V30 7 1 7 4
M  V30 8 1 8 2
M  V30 9 1 9 5
M  V30 10 1 10 5
M  V30 11 1 11 5
M  V30 12 1 12 6
M  V30 13 1 13 6
M  V30 14 1 14 7
M  V30 15 1 15 1
M  V30 END BOND
M  V30 END CTAB
M  END
>  <i_epik_Tot_Q>  (1) 
1

>  <i_epik_Tot_abs_Q>  (1) 
1

>  <i_i_glide_confnum>  (1) 
1

>  <i_i_glide_lignum>  (1) 
28

>  <i_i_glide_posenum>  (1) 
267

>  <i_i_glide_rotatable_bonds>  (1) 
0

>  <i_lp_mmshare_version>  (1) 
72125

>  <i_m_source_file_index>  (1) 
25

>  <i_f3d_flags>  (1) 
0

>  <num_sample>  (1) 
50

>  <b_lp_Chiralities_Consistent>  (1) 
1

>  <r_epik_Charging_Adjusted_Penalty>  (1) 
0.028937443406262361

>  <r_epik_Ionization_Penalty>  (1) 
0.025358402846536118

>  <r_epik_Ionization_Penalty_Charging>  (1) 
0

>  <r_epik_Ionization_Penalty_Neutral>  (1) 
0.025358402846536118

>  <r_epik_State_Penalty>  (1) 
0.028937443406262361

>  <r_glide_ring_energy>  (1) 
0

>  <r_i_docking_score>  (1) 
-4.5379894617369043

>  <r_i_glide_ecoul>  (1) 
-8.012863227330552

>  <r_i_glide_eff_state_penalty>  (1) 
0.028937443406262361

>  <r_i_glide_einternal>  (1) 
0

>  <r_i_glide_emodel>  (1) 
-24.081450099062348

>  <r_i_glide_emodel_strain>  (1) 
0

>  <r_i_glide_energy>  (1) 
-15.052836946036084

>  <r_i_glide_erotb>  (1) 
0

>  <r_i_glide_esite>  (1) 
-0.17559451153719907

>  <r_i_glide_evdw>  (1) 
-7.0399737187055322

>  <r_i_glide_gscore>  (1) 
-4.5669269051431662

>  <r_i_glide_gscore_strain>  (1) 
0

>  <r_i_glide_hbond>  (1) 
-0.14904606217447253

>  <r_i_glide_ligand_efficiency>  (1) 
-0.64828420881955773

>  <r_i_glide_ligand_efficiency_ln>  (1) 
-1.5404371593587587

>  <r_i_glide_ligand_efficiency_sa>  (1) 
-1.2401230783498591

>  <r_i_glide_lipo>  (1) 
-0.4383581613966353

>  <r_i_glide_metal>  (1) 
-0

>  <r_i_glide_rewards>  (1) 
-2.25

>  <r_lp_Energy>  (1) 
-0.73901799999999995

>  <r_lp_tautomer_probability>  (1) 
0.99999998112300037

>  <s_epik_cmdline>  (1) 
J2VwaWtfcHl0aG9uJywgJy1waHQnLCAnMS4wJywgJy1waCcsICc3LjQnLCAnLXRuJywgJzgnLCAnLW1hJywgJzUwMCcsICctaW1hZScsICc8aW5maWxlLm1hZT4nLCAnLW9tYWUnLCAnPG91dGZpbGUubWFlPic=

>  <s_epik_input>  (1) 
W05IMl1jKFtuSF0xKW5bY0hdYzFbQ0gzXQ==

>  <s_glide_docking_method>  (1) 
confgen

>  <s_i_glide_gridfile>  (1) 
gpcr_drd2_6luq_protein_autoprepared_prepared

>  <s_lp_Force_Field>  (1) 
S-OPLS

>  <s_lp_Variant>  (1) 
Pocket2Mol_24-1

>  <s_m_source_file>  (1) 
generated_generic_title2_ligand_Pocket2Mol_2026-06-23_prepared.sdf

>  <GenAI_Model>  (1) 
Pocket2Mol

>  <Protein>  (1) 
generic_title2

$$$$
Pocket2Mol_11
     RDKit          3D

  0  0  0  0  0  0  0  0  0  0999 V3000
M  V30 BEGIN CTAB
M  V30 COUNTS 14 14 0 0 1
M  V30 BEGIN ATOM
M  V30 1 O 12.106272 9.190184 -4.084709 0
M  V30 2 C 11.375417 9.043737 -5.204614 0
M  V30 3 C 12.174862 7.797893 -3.585025 0
M  V30 4 C 10.975445 7.843419 -5.489913 0
M  V30 5 C 10.144039 7.469057 -6.699150 0
M  V30 6 C 11.375494 6.790360 -4.548790 0
M  V30 7 H 11.197020 9.957491 -5.752596 0
M  V30 8 H 11.774121 7.759836 -2.571839 0
M  V30 9 H 13.222796 7.506247 -3.516669 0
M  V30 10 H 9.195017 7.030096 -6.387985 0
M  V30 11 H 9.925419 8.341604 -7.316779 0
M  V30 12 H 10.674038 6.740660 -7.314068 0
M  V30 13 H 10.513221 6.326721 -4.069672 0
M  V30 14 H 12.008751 6.039062 -5.020999 0
M  V30 END ATOM
M  V30 BEGIN BOND
M  V30 1 1 2 1
M  V30 2 1 3 1
M  V30 3 2 4 2
M  V30 4 1 5 4
M  V30 5 1 6 3
M  V30 6 1 6 4
M  V30 7 1 7 2
M  V30 8 1 8 3
M  V30 9 1 9 3
M  V30 10 1 10 5
M  V30 11 1 11 5
M  V30 12 1 12 5
M  V30 13 1 13 6
M  V30 14 1 14 6
M  V30 END BOND
M  V30 END CTAB
M  END
>  <i_epik_Tot_Q>  (1) 
0

>  <i_epik_Tot_abs_Q>  (1) 
0

>  <i_i_glide_confnum>  (1) 
1

>  <i_i_glide_lignum>  (1) 
14

>  <i_i_glide_posenum>  (1) 
65

>  <i_i_glide_rotatable_bonds>  (1) 
0

>  <i_lp_mmshare_version>  (1) 
72125

>  <i_m_source_file_index>  (1) 
12

>  <i_f3d_flags>  (1) 
0

>  <num_sample>  (1) 
50

>  <b_lp_Chiralities_Consistent>  (1) 
1

>  <r_epik_Charging_Adjusted_Penalty>  (1) 
0

>  <r_epik_Ionization_Penalty>  (1) 
0

>  <r_epik_Ionization_Penalty_Charging>  (1) 
0

>  <r_epik_Ionization_Penalty_Neutral>  (1) 
0

>  <r_epik_State_Penalty>  (1) 
-0

>  <r_glide_ring_energy>  (1) 
0

>  <r_i_docking_score>  (1) 
-4.5351239012909357

>  <r_i_glide_ecoul>  (1) 
-0.47692463424601572

>  <r_i_glide_eff_state_penalty>  (1) 
-0

>  <r_i_glide_einternal>  (1) 
0

>  <r_i_glide_emodel>  (1) 
-19.589632725659648

>  <r_i_glide_emodel_strain>  (1) 
0

>  <r_i_glide_energy>  (1) 
-15.155163993149902

>  <r_i_glide_erotb>  (1) 
0

>  <r_i_glide_esite>  (1) 
0

>  <r_i_glide_evdw>  (1) 
-14.678239358903886

>  <r_i_glide_gscore>  (1) 
-4.5351239012909357

>  <r_i_glide_gscore_strain>  (1) 
0

>  <r_i_glide_hbond>  (1) 
0

>  <r_i_glide_ligand_efficiency>  (1) 
-0.75585398354848932

>  <r_i_glide_ligand_efficiency_ln>  (1) 
-1.6244679927762313

>  <r_i_glide_ligand_efficiency_sa>  (1) 
-1.3734778386801654

>  <r_i_glide_lipo>  (1) 
-1.2840879475661264

>  <r_i_glide_metal>  (1) 
-0

>  <r_i_glide_rewards>  (1) 
-2.4455852906427125

>  <r_lp_Energy>  (1) 
-7.9393969999999996

>  <r_lp_tautomer_probability>  (1) 
1

>  <s_epik_cmdline>  (1) 
J2VwaWtfcHl0aG9uJywgJy1waHQnLCAnMS4wJywgJy1waCcsICc3LjQnLCAnLXRuJywgJzgnLCAnLW1hJywgJzUwMCcsICctaW1hZScsICc8aW5maWxlLm1hZT4nLCAnLW9tYWUnLCAnPG91dGZpbGUubWFlPic=

>  <s_epik_input>  (1) 
W0NIMl0xW0NIMl1PW0NIXT1DMVtDSDNd

>  <s_glide_docking_method>  (1) 
confgen

>  <s_i_glide_gridfile>  (1) 
gpcr_drd2_6luq_protein_autoprepared_prepared

>  <s_lp_Force_Field>  (1) 
S-OPLS

>  <s_lp_Variant>  (1) 
Pocket2Mol_11-1

>  <s_m_source_file>  (1) 
generated_generic_title2_ligand_Pocket2Mol_2026-06-23_prepared.sdf

>  <GenAI_Model>  (1) 
Pocket2Mol

>  <Protein>  (1) 
generic_title2

$$$$
Pocket2Mol_18
     RDKit          3D

  0  0  0  0  0  0  0  0  0  0999 V3000
M  V30 BEGIN CTAB
M  V30 COUNTS 14 14 0 0 1
M  V30 BEGIN ATOM
M  V30 1 N 7.100992 5.990227 -11.185025 0 CHG=1
M  V30 2 C 8.170825 5.177171 -11.066587 0
M  V30 3 C 8.365767 4.132497 -11.993866 0
M  V30 4 C 7.426688 3.956436 -13.034552 0
M  V30 5 N 7.586775 2.929549 -13.962098 0
M  V30 6 C 6.322071 4.833430 -13.122476 0
M  V30 7 C 6.185243 5.859444 -12.164786 0
M  V30 8 H 8.833451 5.384003 -10.237935 0
M  V30 9 H 9.219558 3.474766 -11.906441 0
M  V30 10 H 6.842706 2.703587 -14.606537 0
M  V30 11 H 8.272867 2.203685 -13.809326 0
M  V30 12 H 5.592230 4.720295 -13.910182 0
M  V30 13 H 5.375410 6.573950 -12.152803 0
M  V30 14 H 6.975475 6.752431 -10.484944 0
M  V30 END ATOM
M  V30 BEGIN BOND
M  V30 1 1 2 1
M  V30 2 2 3 2
M  V30 3 1 4 3
M  V30 4 1 5 4
M  V30 5 2 6 4
M  V30 6 2 7 1
M  V30 7 1 7 6
M  V30 8 1 8 2
M  V30 9 1 9 3
M  V30 10 1 10 5
M  V30 11 1 11 5
M  V30 12 1 12 6
M  V30 13 1 13 7
M  V30 14 1 14 1
M  V30 END BOND
M  V30 END CTAB
M  END
>  <i_epik_Tot_Q>  (1) 
1

>  <i_epik_Tot_abs_Q>  (1) 
1

>  <i_i_glide_confnum>  (1) 
1

>  <i_i_glide_lignum>  (1) 
21

>  <i_i_glide_posenum>  (1) 
189

>  <i_i_glide_rotatable_bonds>  (1) 
0

>  <i_lp_mmshare_version>  (1) 
72125

>  <i_m_source_file_index>  (1) 
19

>  <i_f3d_flags>  (1) 
0

>  <num_sample>  (1) 
50

>  <b_lp_Chiralities_Consistent>  (1) 
1

>  <r_epik_Charging_Adjusted_Penalty>  (1) 
0.023410508937706027

>  <r_epik_Ionization_Penalty>  (1) 
0.011711918016166721

>  <r_epik_Ionization_Penalty_Charging>  (1) 
0.011705254468853022

>  <r_epik_Ionization_Penalty_Neutral>  (1) 
6.6635473136990569e-06

>  <r_epik_State_Penalty>  (1) 
0.011705254468853005

>  <r_glide_ring_energy>  (1) 
0

>  <r_i_docking_score>  (1) 
-4.5343496603781306

>  <r_i_glide_ecoul>  (1) 
-7.4739501239472759

>  <r_i_glide_eff_state_penalty>  (1) 
0.011705254468853005

>  <r_i_glide_einternal>  (1) 
0

>  <r_i_glide_emodel>  (1) 
-25.790541334651493

>  <r_i_glide_emodel_strain>  (1) 
0

>  <r_i_glide_energy>  (1) 
-17.270208020038815

>  <r_i_glide_erotb>  (1) 
0

>  <r_i_glide_esite>  (1) 
-0.10000000000000001

>  <r_i_glide_evdw>  (1) 
-9.7962578960915376

>  <r_i_glide_gscore>  (1) 
-4.5460549148469838

>  <r_i_glide_gscore_strain>  (1) 
0

>  <r_i_glide_hbond>  (1) 
-0.19264111284921287

>  <r_i_glide_ligand_efficiency>  (1) 
-0.64776423719687581

>  <r_i_glide_ligand_efficiency_ln>  (1) 
-1.5392016154437682

>  <r_i_glide_ligand_efficiency_sa>  (1) 
-1.239128408418674

>  <r_i_glide_lipo>  (1) 
-0.39250838860110304

>  <r_i_glide_metal>  (1) 
-0

>  <r_i_glide_rewards>  (1) 
-2.25

>  <r_lp_Energy>  (1) 
13.062742999999999

>  <r_lp_tautomer_probability>  (1) 
0.99999999993680011

>  <s_epik_cmdline>  (1) 
J2VwaWtfcHl0aG9uJywgJy1waHQnLCAnMS4wJywgJy1waCcsICc3LjQnLCAnLXRuJywgJzgnLCAnLW1hJywgJzUwMCcsICctaW1hZScsICc8aW5maWxlLm1hZT4nLCAnLW9tYWUnLCAnPG91dGZpbGUubWFlPic=

>  <s_epik_input>  (1) 
W2NIXTFbY0hdbltjSF1bY0hdYzFbTkgyXQ==

>  <s_glide_docking_method>  (1) 
confgen

>  <s_i_glide_gridfile>  (1) 
gpcr_drd2_6luq_protein_autoprepared_prepared

>  <s_lp_Force_Field>  (1) 
S-OPLS

>  <s_lp_Variant>  (1) 
Pocket2Mol_18-1

>  <s_m_source_file>  (1) 
generated_generic_title2_ligand_Pocket2Mol_2026-06-23_prepared.sdf

>  <GenAI_Model>  (1) 
Pocket2Mol

>  <Protein>  (1) 
generic_title2

$$$$
Pocket2Mol_1
     RDKit          3D

  0  0  0  0  0  0  0  0  0  0999 V3000
M  V30 BEGIN CTAB
M  V30 COUNTS 10 10 0 0 1
M  V30 BEGIN ATOM
M  V30 1 N 12.575407 9.097408 -2.789571 0
M  V30 2 C 12.093156 8.795611 -4.036992 0
M  V30 3 C 11.775411 7.462072 -4.030350 0
M  V30 4 C 12.085258 6.951374 -2.728509 0
M  V30 5 C 12.575410 7.990226 -1.985025 0
M  V30 6 H 12.892603 10.014491 -2.498909 0
M  V30 7 H 12.019267 9.548972 -4.807969 0
M  V30 8 H 11.367771 6.911990 -4.866443 0
M  V30 9 H 11.959696 5.936518 -2.379095 0
M  V30 10 H 12.926982 8.042053 -0.965509 0
M  V30 END ATOM
M  V30 BEGIN BOND
M  V30 1 1 2 1
M  V30 2 2 3 2
M  V30 3 1 4 3
M  V30 4 1 5 1
M  V30 5 2 5 4
M  V30 6 1 6 1
M  V30 7 1 7 2
M  V30 8 1 8 3
M  V30 9 1 9 4
M  V30 10 1 10 5
M  V30 END BOND
M  V30 END CTAB
M  END
>  <i_epik_Tot_Q>  (1) 
0

>  <i_epik_Tot_abs_Q>  (1) 
0

>  <i_i_glide_confnum>  (1) 
1

>  <i_i_glide_lignum>  (1) 
2

>  <i_i_glide_posenum>  (1) 
153

>  <i_i_glide_rotatable_bonds>  (1) 
0

>  <i_lp_mmshare_version>  (1) 
72125

>  <i_m_source_file_index>  (1) 
2

>  <i_f3d_flags>  (1) 
0

>  <num_sample>  (1) 
50

>  <b_lp_Chiralities_Consistent>  (1) 
1

>  <r_epik_Charging_Adjusted_Penalty>  (1) 
0

>  <r_epik_Ionization_Penalty>  (1) 
4.7655302421719939e-09

>  <r_epik_Ionization_Penalty_Charging>  (1) 
0

>  <r_epik_Ionization_Penalty_Neutral>  (1) 
4.7655302421719939e-09

>  <r_epik_State_Penalty>  (1) 
-0

>  <r_glide_ring_energy>  (1) 
0

>  <r_i_docking_score>  (1) 
-4.5270131515545096

>  <r_i_glide_ecoul>  (1) 
-1.7591275839063769

>  <r_i_glide_eff_state_penalty>  (1) 
-0

>  <r_i_glide_einternal>  (1) 
0

>  <r_i_glide_emodel>  (1) 
-18.375176276025567

>  <r_i_glide_emodel_strain>  (1) 
0

>  <r_i_glide_energy>  (1) 
-13.616573039405734

>  <r_i_glide_erotb>  (1) 
0

>  <r_i_glide_esite>  (1) 
0

>  <r_i_glide_evdw>  (1) 
-11.857445455499358

>  <r_i_glide_gscore>  (1) 
-4.5270131515545096

>  <r_i_glide_gscore_strain>  (1) 
0

>  <r_i_glide_hbond>  (1) 
-0.31529132648342839

>  <r_i_glide_ligand_efficiency>  (1) 
-0.90540263031090196

>  <r_i_glide_ligand_efficiency_ln>  (1) 
-1.7348614159329365

>  <r_i_glide_ligand_efficiency_sa>  (1) 
-1.5482167198894561

>  <r_i_glide_lipo>  (1) 
-1.1049804147101565

>  <r_i_glide_metal>  (1) 
-0

>  <r_i_glide_rewards>  (1) 
-2.25

>  <r_lp_Energy>  (1) 
2.9132020000000001

>  <r_lp_tautomer_probability>  (1) 
1

>  <s_epik_cmdline>  (1) 
J2VwaWtfcHl0aG9uJywgJy1waHQnLCAnMS4wJywgJy1waCcsICc3LjQnLCAnLXRuJywgJzgnLCAnLW1hJywgJzUwMCcsICctaW1hZScsICc8aW5maWxlLm1hZT4nLCAnLW9tYWUnLCAnPG91dGZpbGUubWFlPic=

>  <s_epik_input>  (1) 
W25IXTFbY0hdW2NIXVtjSF1bY0hdMQ==

>  <s_glide_docking_method>  (1) 
confgen

>  <s_i_glide_gridfile>  (1) 
gpcr_drd2_6luq_protein_autoprepared_prepared

>  <s_lp_Force_Field>  (1) 
S-OPLS

>  <s_lp_Variant>  (1) 
Pocket2Mol_1-1

>  <s_m_source_file>  (1) 
generated_generic_title2_ligand_Pocket2Mol_2026-06-23_prepared.sdf

>  <GenAI_Model>  (1) 
Pocket2Mol

>  <Protein>  (1) 
generic_title2

$$$$
Pocket2Mol_47
     RDKit          3D

  0  0  0  0  0  0  0  0  0  0999 V3000
M  V30 BEGIN CTAB
M  V30 COUNTS 11 11 0 0 1
M  V30 BEGIN ATOM
M  V30 1 C 12.176877 9.015665 -3.413370 0
M  V30 2 O 11.766705 7.976551 -4.385341 0
M  V30 3 C 12.456343 8.390225 -1.965132 0
M  V30 4 C 12.122549 7.028053 -2.385025 0
M  V30 5 C 11.775421 6.872442 -3.620224 0
M  V30 6 H 11.389968 9.768852 -3.350423 0
M  V30 7 H 13.068224 9.521449 -3.786784 0
M  V30 8 H 11.775411 8.762250 -1.198755 0
M  V30 9 H 13.492981 8.485974 -1.646812 0
M  V30 10 H 12.167831 6.213230 -1.676630 0
M  V30 11 H 11.490058 5.963247 -4.129615 0
M  V30 END ATOM
M  V30 BEGIN BOND
M  V30 1 1 2 1
M  V30 2 1 3 1
M  V30 3 1 4 3
M  V30 4 1 5 2
M  V30 5 2 5 4
M  V30 6 1 6 1
M  V30 7 1 7 1
M  V30 8 1 8 3
M  V30 9 1 9 3
M  V30 10 1 10 4
M  V30 11 1 11 5
M  V30 END BOND
M  V30 END CTAB
M  END
>  <i_epik_Tot_Q>  (1) 
0

>  <i_epik_Tot_abs_Q>  (1) 
0

>  <i_i_glide_confnum>  (1) 
1

>  <i_i_glide_lignum>  (1) 
53

>  <i_i_glide_posenum>  (1) 
22

>  <i_i_glide_rotatable_bonds>  (1) 
0

>  <i_lp_mmshare_version>  (1) 
72125

>  <i_m_source_file_index>  (1) 
48

>  <i_f3d_flags>  (1) 
0

>  <num_sample>  (1) 
50

>  <b_lp_Chiralities_Consistent>  (1) 
1

>  <r_epik_Charging_Adjusted_Penalty>  (1) 
0

>  <r_epik_Ionization_Penalty>  (1) 
0

>  <r_epik_Ionization_Penalty_Charging>  (1) 
0

>  <r_epik_Ionization_Penalty_Neutral>  (1) 
0

>  <r_epik_State_Penalty>  (1) 
-0

>  <r_glide_ring_energy>  (1) 
0

>  <r_i_docking_score>  (1) 
-4.5192928512657105

>  <r_i_glide_ecoul>  (1) 
-0.7737300079478493

>  <r_i_glide_eff_state_penalty>  (1) 
-0

>  <r_i_glide_einternal>  (1) 
0

>  <r_i_glide_emodel>  (1) 
-18.488436095280122

>  <r_i_glide_emodel_strain>  (1) 
0

>  <r_i_glide_energy>  (1) 
-14.545008734026817

>  <r_i_glide_erotb>  (1) 
0

>  <r_i_glide_esite>  (1) 
0

>  <r_i_glide_evdw>  (1) 
-13.771278726078968

>  <r_i_glide_gscore>  (1) 
-4.5192928512657105

>  <r_i_glide_gscore_strain>  (1) 
0

>  <r_i_glide_hbond>  (1) 
0

>  <r_i_glide_ligand_efficiency>  (1) 
-0.90385857025314209

>  <r_i_glide_ligand_efficiency_ln>  (1) 
-1.7319028093104101

>  <r_i_glide_ligand_efficiency_sa>  (1) 
-1.5455764143304624

>  <r_i_glide_lipo>  (1) 
-1.2639920901648298

>  <r_i_glide_metal>  (1) 
-0

>  <r_i_glide_rewards>  (1) 
-2.4506773236047539

>  <r_lp_Energy>  (1) 
-3.1771669999999999

>  <r_lp_tautomer_probability>  (1) 
1

>  <s_epik_cmdline>  (1) 
J2VwaWtfcHl0aG9uJywgJy1waHQnLCAnMS4wJywgJy1waCcsICc3LjQnLCAnLXRuJywgJzgnLCAnLW1hJywgJzUwMCcsICctaW1hZScsICc8aW5maWxlLm1hZT4nLCAnLW9tYWUnLCAnPG91dGZpbGUubWFlPic=

>  <s_epik_input>  (1) 
W0NIMl0xT1tDSF09W0NIXVtDSDJdMQ==

>  <s_glide_docking_method>  (1) 
confgen

>  <s_i_glide_gridfile>  (1) 
gpcr_drd2_6luq_protein_autoprepared_prepared

>  <s_lp_Force_Field>  (1) 
S-OPLS

>  <s_lp_Variant>  (1) 
Pocket2Mol_47-1

>  <s_m_source_file>  (1) 
generated_generic_title2_ligand_Pocket2Mol_2026-06-23_prepared.sdf

>  <GenAI_Model>  (1) 
Pocket2Mol

>  <Protein>  (1) 
generic_title2

$$$$
Pocket2Mol_14
     RDKit          3D

  0  0  0  0  0  0  0  0  0  0999 V3000
M  V30 BEGIN CTAB
M  V30 COUNTS 17 17 0 0 1
M  V30 BEGIN ATOM
M  V30 1 C 12.527450 8.390227 -7.985025 0
M  V30 2 O 11.775410 9.190227 -7.084211 0
M  V30 3 C 11.934299 8.390227 -9.403293 0
M  V30 4 O 10.541221 8.119076 -9.497314 0
M  V30 5 C 10.775758 8.455390 -6.386636 0
M  V30 6 C 9.980322 7.242056 -8.530415 0
M  V30 7 C 9.594421 8.048663 -7.280199 0
M  V30 8 H 13.538068 8.793407 -8.035499 0
M  V30 9 H 12.641333 7.375458 -7.602421 0
M  V30 10 H 12.111672 9.356203 -9.876931 0
M  V30 11 H 12.465867 7.653070 -10.005206 0
M  V30 12 H 11.210104 7.582067 -5.897224 0
M  V30 13 H 10.401765 9.091884 -5.585025 0
M  V30 14 H 10.629676 6.394685 -8.305772 0
M  V30 15 H 9.072521 6.822590 -8.965398 0
M  V30 16 H 8.898503 7.457700 -6.683319 0
M  V30 17 H 9.037280 8.934788 -7.586709 0
M  V30 END ATOM
M  V30 BEGIN BOND
M  V30 1 1 2 1
M  V30 2 1 3 1
M  V30 3 1 4 3
M  V30 4 1 5 2
M  V30 5 1 6 4
M  V30 6 1 7 5
M  V30 7 1 7 6
M  V30 8 1 8 1
M  V30 9 1 9 1
M  V30 10 1 10 3
M  V30 11 1 11 3
M  V30 12 1 12 5
M  V30 13 1 13 5
M  V30 14 1 14 6
M  V30 15 1 15 6
M  V30 16 1 16 7
M  V30 17 1 17 7
M  V30 END BOND
M  V30 END CTAB
M  END
>  <i_epik_Tot_Q>  (1) 
0

>  <i_epik_Tot_abs_Q>  (1) 
0

>  <i_i_glide_confnum>  (1) 
2

>  <i_i_glide_lignum>  (1) 
17

>  <i_i_glide_posenum>  (1) 
183

>  <i_i_glide_rotatable_bonds>  (1) 
0

>  <i_lp_mmshare_version>  (1) 
72125

>  <i_m_source_file_index>  (1) 
15

>  <i_f3d_flags>  (1) 
0

>  <num_sample>  (1) 
50

>  <b_lp_Chiralities_Consistent>  (1) 
1

>  <r_epik_Charging_Adjusted_Penalty>  (1) 
0

>  <r_epik_Ionization_Penalty>  (1) 
3.933197540425548e-12

>  <r_epik_Ionization_Penalty_Charging>  (1) 
0

>  <r_epik_Ionization_Penalty_Neutral>  (1) 
3.933197540425548e-12

>  <r_epik_State_Penalty>  (1) 
-0

>  <r_glide_ring_energy>  (1) 
0.00017049435676393324

>  <r_i_docking_score>  (1) 
-4.5188915958612057

>  <r_i_glide_ecoul>  (1) 
-0.59999871614604472

>  <r_i_glide_eff_state_penalty>  (1) 
-0

>  <r_i_glide_einternal>  (1) 
0

>  <r_i_glide_emodel>  (1) 
-21.560692562840241

>  <r_i_glide_emodel_strain>  (1) 
0

>  <r_i_glide_energy>  (1) 
-16.612667418881465

>  <r_i_glide_erotb>  (1) 
0

>  <r_i_glide_esite>  (1) 
0

>  <r_i_glide_evdw>  (1) 
-16.012668702735422

>  <r_i_glide_gscore>  (1) 
-4.5188915958612057

>  <r_i_glide_gscore_strain>  (1) 
0

>  <r_i_glide_hbond>  (1) 
0

>  <r_i_glide_ligand_efficiency>  (1) 
-0.64555594226588653

>  <r_i_glide_ligand_efficiency_ln>  (1) 
-1.5339543187732021

>  <r_i_glide_ligand_efficiency_sa>  (1) 
-1.2349040921844265

>  <r_i_glide_lipo>  (1) 
-0.85325835330252808

>  <r_i_glide_metal>  (1) 
-0

>  <r_i_glide_rewards>  (1) 
-2.7749999999999999

>  <r_lp_Energy>  (1) 
9.641

>  <r_lp_tautomer_probability>  (1) 
1

>  <s_epik_cmdline>  (1) 
J2VwaWtfcHl0aG9uJywgJy1waHQnLCAnMS4wJywgJy1waCcsICc3LjQnLCAnLXRuJywgJzgnLCAnLW1hJywgJzUwMCcsICctaW1hZScsICc8aW5maWxlLm1hZT4nLCAnLW9tYWUnLCAnPG91dGZpbGUubWFlPic=

>  <s_epik_input>  (1) 
W0NIMl0xT1tDSDJdW0NIMl1bQ0gyXU9bQ0gyXTE=

>  <s_glide_docking_method>  (1) 
confgen

>  <s_i_glide_gridfile>  (1) 
gpcr_drd2_6luq_protein_autoprepared_prepared

>  <s_lp_Force_Field>  (1) 
S-OPLS

>  <s_lp_Variant>  (1) 
Pocket2Mol_14-1

>  <s_m_source_file>  (1) 
generated_generic_title2_ligand_Pocket2Mol_2026-06-23_prepared.sdf

>  <GenAI_Model>  (1) 
Pocket2Mol

>  <Protein>  (1) 
generic_title2

$$$$
Pocket2Mol_15
     RDKit          3D

  0  0  0  0  0  0  0  0  0  0999 V3000
M  V30 BEGIN CTAB
M  V30 COUNTS 19 19 0 0 1
M  V30 BEGIN ATOM
M  V30 1 C 11.715690 9.088336 -4.812066 0
M  V30 2 O 10.975376 7.928238 -5.185000 0
M  V30 3 C 10.825877 7.825884 -6.599491 0
M  V30 4 C 11.155096 6.390231 -7.015166 0
M  V30 5 C 9.375408 8.155413 -6.972645 0
M  V30 6 C 11.833135 9.916822 -6.079614 0
M  V30 7 C 11.801411 8.858998 -7.166376 0
M  V30 8 H 11.219665 9.634117 -4.008955 0
M  V30 9 H 12.700874 8.790228 -4.453565 0
M  V30 10 H 11.085566 6.270560 -8.096532 0
M  V30 11 H 10.458055 5.686331 -6.562174 0
M  V30 12 H 12.160515 6.102547 -6.707542 0
M  V30 13 H 9.196153 7.999788 -8.037125 0
M  V30 14 H 8.671725 7.522866 -6.429989 0
M  V30 15 H 9.121615 9.190213 -6.759069 0
M  V30 16 H 10.975403 10.583143 -6.164334 0
M  V30 17 H 12.738136 10.520835 -6.099364 0
M  V30 18 H 12.795628 8.428129 -7.283669 0
M  V30 19 H 11.498224 9.247474 -8.139017 0
M  V30 END ATOM
M  V30 BEGIN BOND
M  V30 1 1 2 1
M  V30 2 1 3 2
M  V30 3 1 4 3
M  V30 4 1 5 3
M  V30 5 1 6 1
M  V30 6 1 7 3
M  V30 7 1 7 6
M  V30 8 1 8 1
M  V30 9 1 9 1
M  V30 10 1 10 4
M  V30 11 1 11 4
M  V30 12 1 12 4
M  V30 13 1 13 5
M  V30 14 1 14 5
M  V30 15 1 15 5
M  V30 16 1 16 6
M  V30 17 1 17 6
M  V30 18 1 18 7
M  V30 19 1 19 7
M  V30 END BOND
M  V30 END CTAB
M  END
>  <i_epik_Tot_Q>  (1) 
0

>  <i_epik_Tot_abs_Q>  (1) 
0

>  <i_i_glide_confnum>  (1) 
4

>  <i_i_glide_lignum>  (1) 
18

>  <i_i_glide_posenum>  (1) 
197

>  <i_i_glide_rotatable_bonds>  (1) 
0

>  <i_lp_mmshare_version>  (1) 
72125

>  <i_m_source_file_index>  (1) 
16

>  <i_f3d_flags>  (1) 
0

>  <num_sample>  (1) 
50

>  <b_lp_Chiralities_Consistent>  (1) 
1

>  <r_epik_Charging_Adjusted_Penalty>  (1) 
0

>  <r_epik_Ionization_Penalty>  (1) 
1.3889264151150229e-11

>  <r_epik_Ionization_Penalty_Charging>  (1) 
0

>  <r_epik_Ionization_Penalty_Neutral>  (1) 
1.3889264151150229e-11

>  <r_epik_State_Penalty>  (1) 
-0

>  <r_glide_ring_energy>  (1) 
0.26153960478789529

>  <r_i_docking_score>  (1) 
-4.5154730540989183

>  <r_i_glide_ecoul>  (1) 
-0.039556457078450513

>  <r_i_glide_eff_state_penalty>  (1) 
-0

>  <r_i_glide_einternal>  (1) 
0

>  <r_i_glide_emodel>  (1) 
-20.613897495531958

>  <r_i_glide_emodel_strain>  (1) 
0.0063298601635768392

>  <r_i_glide_energy>  (1) 
-15.866499641333549

>  <r_i_glide_erotb>  (1) 
0

>  <r_i_glide_esite>  (1) 
0

>  <r_i_glide_evdw>  (1) 
-15.826943184255098

>  <r_i_glide_gscore>  (1) 
-4.5154730540989183

>  <r_i_glide_gscore_strain>  (1) 
0

>  <r_i_glide_hbond>  (1) 
0

>  <r_i_glide_ligand_efficiency>  (1) 
-0.64506757915698831

>  <r_i_glide_ligand_efficiency_ln>  (1) 
-1.5327938822393914

>  <r_i_glide_ligand_efficiency_sa>  (1) 
-1.2339698871648994

>  <r_i_glide_lipo>  (1) 
-1.3015257596577285

>  <r_i_glide_metal>  (1) 
-0

>  <r_i_glide_rewards>  (1) 
-2.4166666666666665

>  <r_lp_Energy>  (1) 
0.043719999999999995

>  <r_lp_tautomer_probability>  (1) 
1

>  <s_epik_cmdline>  (1) 
J2VwaWtfcHl0aG9uJywgJy1waHQnLCAnMS4wJywgJy1waCcsICc3LjQnLCAnLXRuJywgJzgnLCAnLW1hJywgJzUwMCcsICctaW1hZScsICc8aW5maWxlLm1hZT4nLCAnLW9tYWUnLCAnPG91dGZpbGUubWFlPic=

>  <s_epik_input>  (1) 
W0NIMl0xW0NIMl1bQ0gyXU9DMShbQ0gzXSlbQ0gzXQ==

>  <s_glide_docking_method>  (1) 
confgen

>  <s_i_glide_gridfile>  (1) 
gpcr_drd2_6luq_protein_autoprepared_prepared

>  <s_lp_Force_Field>  (1) 
S-OPLS

>  <s_lp_Variant>  (1) 
Pocket2Mol_15-1

>  <s_m_source_file>  (1) 
generated_generic_title2_ligand_Pocket2Mol_2026-06-23_prepared.sdf

>  <GenAI_Model>  (1) 
Pocket2Mol

>  <Protein>  (1) 
generic_title2

$$$$
Pocket2Mol_43
     RDKit          3D

  0  0  0  0  0  0  0  0  0  0999 V3000
M  V30 BEGIN CTAB
M  V30 COUNTS 8 8 0 0 1
M  V30 BEGIN ATOM
M  V30 1 N 11.375403 8.210437 -5.218671 0
M  V30 2 C 11.317308 6.895975 -4.733896 0
M  V30 3 C 11.775410 6.790226 -3.433832 0
M  V30 4 C 11.870697 9.062728 -4.330342 0
M  V30 5 S 12.313773 8.338781 -2.808983 0
M  V30 6 H 10.933049 6.109272 -5.366983 0
M  V30 7 H 11.834058 5.904957 -2.816843 0
M  V30 8 H 11.974380 10.109650 -4.571530 0
M  V30 END ATOM
M  V30 BEGIN BOND
M  V30 1 1 2 1
M  V30 2 2 3 2
M  V30 3 2 4 1
M  V30 4 1 5 3
M  V30 5 1 5 4
M  V30 6 1 6 2
M  V30 7 1 7 3
M  V30 8 1 8 4
M  V30 END BOND
M  V30 END CTAB
M  END
>  <i_epik_Tot_Q>  (1) 
0

>  <i_epik_Tot_abs_Q>  (1) 
0

>  <i_i_glide_confnum>  (1) 
1

>  <i_i_glide_lignum>  (1) 
48

>  <i_i_glide_posenum>  (1) 
29

>  <i_i_glide_rotatable_bonds>  (1) 
0

>  <i_lp_mmshare_version>  (1) 
72125

>  <i_m_source_file_index>  (1) 
44

>  <i_f3d_flags>  (1) 
0

>  <num_sample>  (1) 
50

>  <b_lp_Chiralities_Consistent>  (1) 
1

>  <r_epik_Charging_Adjusted_Penalty>  (1) 
0

>  <r_epik_Ionization_Penalty>  (1) 
1.4882382677604034e-05

>  <r_epik_Ionization_Penalty_Charging>  (1) 
0

>  <r_epik_Ionization_Penalty_Neutral>  (1) 
1.4882382677604034e-05

>  <r_epik_State_Penalty>  (1) 
-0

>  <r_glide_ring_energy>  (1) 
0

>  <r_i_docking_score>  (1) 
-4.5135898809317174

>  <r_i_glide_ecoul>  (1) 
-0.95980317921075775

>  <r_i_glide_eff_state_penalty>  (1) 
-0

>  <r_i_glide_einternal>  (1) 
0

>  <r_i_glide_emodel>  (1) 
-19.743369135104334

>  <r_i_glide_emodel_strain>  (1) 
0

>  <r_i_glide_energy>  (1) 
-15.122941371606071

>  <r_i_glide_erotb>  (1) 
0

>  <r_i_glide_esite>  (1) 
0

>  <r_i_glide_evdw>  (1) 
-14.163138192395314

>  <r_i_glide_gscore>  (1) 
-4.5135898809317174

>  <r_i_glide_gscore_strain>  (1) 
0

>  <r_i_glide_hbond>  (1) 
0

>  <r_i_glide_ligand_efficiency>  (1) 
-0.90271797618634353

>  <r_i_glide_ligand_efficiency_ln>  (1) 
-1.7297172925342423

>  <r_i_glide_ligand_efficiency_sa>  (1) 
-1.5436260259113148

>  <r_i_glide_lipo>  (1) 
-1.2450613762219209

>  <r_i_glide_metal>  (1) 
-0

>  <r_i_glide_rewards>  (1) 
-2.4164011182084173

>  <r_lp_Energy>  (1) 
1.6688799999999999

>  <r_lp_tautomer_probability>  (1) 
1

>  <s_epik_cmdline>  (1) 
J2VwaWtfcHl0aG9uJywgJy1waHQnLCAnMS4wJywgJy1waCcsICc3LjQnLCAnLXRuJywgJzgnLCAnLW1hJywgJzUwMCcsICctaW1hZScsICc8aW5maWxlLm1hZT4nLCAnLW9tYWUnLCAnPG91dGZpbGUubWFlPic=

>  <s_epik_input>  (1) 
bjFbY0hdW2NIXXNbY0hdMQ==

>  <s_glide_docking_method>  (1) 
confgen

>  <s_i_glide_gridfile>  (1) 
gpcr_drd2_6luq_protein_autoprepared_prepared

>  <s_lp_Force_Field>  (1) 
S-OPLS

>  <s_lp_Variant>  (1) 
Pocket2Mol_43-1

>  <s_m_source_file>  (1) 
generated_generic_title2_ligand_Pocket2Mol_2026-06-23_prepared.sdf

>  <GenAI_Model>  (1) 
Pocket2Mol

>  <Protein>  (1) 
generic_title2

$$$$
Pocket2Mol_34
     RDKit          3D

  0  0  0  0  0  0  0  0  0  0999 V3000
M  V30 BEGIN CTAB
M  V30 COUNTS 17 18 0 0 1
M  V30 BEGIN ATOM
M  V30 1 C 11.722483 8.935190 -4.996802 0
M  V30 2 O 10.863530 7.742466 -5.185026 0
M  V30 3 C 10.694849 7.734217 -6.521700 0
M  V30 4 C 11.368398 8.682769 -7.206333 0
M  V30 5 C 11.267592 8.763768 -8.608198 0
M  V30 6 N 10.473953 7.877204 -9.256854 0 CHG=1
M  V30 7 C 9.775409 6.911083 -8.604144 0
M  V30 8 C 9.871564 6.811791 -7.195772 0
M  V30 9 C 12.175385 9.590225 -6.385025 0
M  V30 10 H 12.586851 8.674330 -4.385086 0
M  V30 11 H 11.152031 9.665301 -4.420683 0
M  V30 12 H 11.775405 9.495448 -9.220864 0
M  V30 13 H 9.167129 6.262055 -9.219649 0
M  V30 14 H 9.323939 6.055168 -6.653278 0
M  V30 15 H 13.242216 9.482207 -6.583133 0
M  V30 16 H 11.859396 10.629910 -6.478979 0
M  V30 17 H 10.391967 7.939758 -10.272568 0
M  V30 END ATOM
M  V30 BEGIN BOND
M  V30 1 1 2 1
M  V30 2 1 3 2
M  V30 3 2 4 3
M  V30 4 1 5 4
M  V30 5 2 6 5
M  V30 6 1 7 6
M  V30 7 1 8 3
M  V30 8 2 8 7
M  V30 9 1 9 1
M  V30 10 1 9 4
M  V30 11 1 10 1
M  V30 12 1 11 1
M  V30 13 1 12 5
M  V30 14 1 13 7
M  V30 15 1 14 8
M  V30 16 1 15 9
M  V30 17 1 16 9
M  V30 18 1 17 6
M  V30 END BOND
M  V30 END CTAB
M  END
>  <i_epik_Tot_Q>  (1) 
1

>  <i_epik_Tot_abs_Q>  (1) 
1

>  <i_i_glide_confnum>  (1) 
1

>  <i_i_glide_lignum>  (1) 
38

>  <i_i_glide_posenum>  (1) 
144

>  <i_i_glide_rotatable_bonds>  (1) 
0

>  <i_lp_mmshare_version>  (1) 
72125

>  <i_m_source_file_index>  (1) 
35

>  <i_f3d_flags>  (1) 
0

>  <num_sample>  (1) 
50

>  <b_lp_Chiralities_Consistent>  (1) 
1

>  <r_epik_Charging_Adjusted_Penalty>  (1) 
0.75885481127580179

>  <r_epik_Ionization_Penalty>  (1) 
0.37942740563790117

>  <r_epik_Ionization_Penalty_Charging>  (1) 
0.37942740563790117

>  <r_epik_Ionization_Penalty_Neutral>  (1) 
0

>  <r_epik_State_Penalty>  (1) 
0.37942740563790056

>  <r_glide_ring_energy>  (1) 
0

>  <r_i_docking_score>  (1) 
-4.5078510930634028

>  <r_i_glide_ecoul>  (1) 
-1.03444744698946

>  <r_i_glide_eff_state_penalty>  (1) 
0.37942740563790056

>  <r_i_glide_einternal>  (1) 
0

>  <r_i_glide_emodel>  (1) 
-27.775669457275146

>  <r_i_glide_emodel_strain>  (1) 
5.546070269701886e-10

>  <r_i_glide_energy>  (1) 
-18.478556883803048

>  <r_i_glide_erotb>  (1) 
0

>  <r_i_glide_esite>  (1) 
-0.031512895056690186

>  <r_i_glide_evdw>  (1) 
-17.444109436813587

>  <r_i_glide_gscore>  (1) 
-4.8872784987013036

>  <r_i_glide_gscore_strain>  (1) 
0

>  <r_i_glide_hbond>  (1) 
0

>  <r_i_glide_ligand_efficiency>  (1) 
-0.50087234367371147

>  <r_i_glide_ligand_efficiency_ln>  (1) 
-1.4099263232922903

>  <r_i_glide_ligand_efficiency_sa>  (1) 
-1.041856459489781

>  <r_i_glide_lipo>  (1) 
-1.253393014755515

>  <r_i_glide_metal>  (1) 
-0

>  <r_i_glide_rewards>  (1) 
-2.5750000000000002

>  <r_lp_Energy>  (1) 
18.327531999999998

>  <s_epik_cmdline>  (1) 
J2VwaWtfcHl0aG9uJywgJy1waHQnLCAnMS4wJywgJy1waCcsICc3LjQnLCAnLXRuJywgJzgnLCAnLW1hJywgJzUwMCcsICctaW1hZScsICc8aW5maWxlLm1hZT4nLCAnLW9tYWUnLCAnPG91dGZpbGUubWFlPic=

>  <s_epik_input>  (1) 
TzFbQ0gyXVtDSDJdYyhjMTIpW2NIXW5bY0hdW2NIXTI=

>  <s_glide_docking_method>  (1) 
confgen

>  <s_i_glide_gridfile>  (1) 
gpcr_drd2_6luq_protein_autoprepared_prepared

>  <s_lp_Force_Field>  (1) 
S-OPLS

>  <s_lp_Variant>  (1) 
Pocket2Mol_34-1

>  <s_m_source_file>  (1) 
generated_generic_title2_ligand_Pocket2Mol_2026-06-23_prepared.sdf

>  <GenAI_Model>  (1) 
Pocket2Mol

>  <Protein>  (1) 
generic_title2

$$$$
Pocket2Mol_39
     RDKit          3D

  0  0  0  0  0  0  0  0  0  0999 V3000
M  V30 BEGIN CTAB
M  V30 COUNTS 14 14 0 0 1
M  V30 BEGIN ATOM
M  V30 1 C 10.046600 7.057324 -7.906846 0
M  V30 2 O 10.579593 6.177669 -6.931261 0
M  V30 3 C 11.184783 6.774872 -5.850933 0
M  V30 4 C 9.375516 8.244920 -7.222895 0
M  V30 5 O 10.316190 8.901876 -6.395517 0
M  V30 6 C 11.079072 8.098403 -5.579661 0
M  V30 7 C 11.775263 8.773455 -4.353906 0
M  V30 8 O 11.542832 9.990227 -4.203284 0 CHG=-1
M  V30 9 O 12.479174 8.027424 -3.635251 0
M  V30 10 H 9.329679 6.519013 -8.528055 0
M  V30 11 H 10.850009 7.395156 -8.561839 0
M  V30 12 H 11.754329 6.072574 -5.259611 0
M  V30 13 H 8.530267 7.920398 -6.616994 0
M  V30 14 H 8.989995 8.943947 -7.966690 0
M  V30 END ATOM
M  V30 BEGIN BOND
M  V30 1 1 2 1
M  V30 2 1 3 2
M  V30 3 1 4 1
M  V30 4 1 5 4
M  V30 5 2 6 3
M  V30 6 1 6 5
M  V30 7 1 7 6
M  V30 8 1 8 7
M  V30 9 2 9 7
M  V30 10 1 10 1
M  V30 11 1 11 1
M  V30 12 1 12 3
M  V30 13 1 13 4
M  V30 14 1 14 4
M  V30 END BOND
M  V30 END CTAB
M  END
>  <i_epik_Tot_Q>  (1) 
-1

>  <i_epik_Tot_abs_Q>  (1) 
1

>  <i_i_glide_confnum>  (1) 
1

>  <i_i_glide_lignum>  (1) 
44

>  <i_i_glide_posenum>  (1) 
19

>  <i_i_glide_rotatable_bonds>  (1) 
1

>  <i_lp_mmshare_version>  (1) 
72125

>  <i_m_source_file_index>  (1) 
40

>  <i_f3d_flags>  (1) 
0

>  <num_sample>  (1) 
50

>  <b_lp_Chiralities_Consistent>  (1) 
1

>  <r_epik_Charging_Adjusted_Penalty>  (1) 
1.9393830553820406e-05

>  <r_epik_Ionization_Penalty>  (1) 
1.9393830553820406e-05

>  <r_epik_Ionization_Penalty_Charging>  (1) 
1.9393830553820406e-05

>  <r_epik_Ionization_Penalty_Neutral>  (1) 
0

>  <r_epik_State_Penalty>  (1) 
-0

>  <r_glide_ring_energy>  (1) 
0

>  <r_i_docking_score>  (1) 
-4.5075279074408012

>  <r_i_glide_ecoul>  (1) 
-1.1733368217147442

>  <r_i_glide_eff_state_penalty>  (1) 
-0

>  <r_i_glide_einternal>  (1) 
0.029836119050713705

>  <r_i_glide_emodel>  (1) 
-22.725125994602742

>  <r_i_glide_emodel_strain>  (1) 
0

>  <r_i_glide_energy>  (1) 
-16.117227620561195

>  <r_i_glide_erotb>  (1) 
0

>  <r_i_glide_esite>  (1) 
0

>  <r_i_glide_evdw>  (1) 
-14.943890798846452

>  <r_i_glide_gscore>  (1) 
-4.5075279074408012

>  <r_i_glide_gscore_strain>  (1) 
0

>  <r_i_glide_hbond>  (1) 
0

>  <r_i_glide_ligand_efficiency>  (1) 
-0.50083643416008905

>  <r_i_glide_ligand_efficiency_ln>  (1) 
-1.4098252401138072

>  <r_i_glide_ligand_efficiency_sa>  (1) 
-1.0417817646914014

>  <r_i_glide_lipo>  (1) 
-0.60844402720109925

>  <r_i_glide_metal>  (1) 
-0

>  <r_i_glide_rewards>  (1) 
-2.9758888170401683

>  <r_lp_Energy>  (1) 
18.695968999999998

>  <r_lp_tautomer_probability>  (1) 
1

>  <s_epik_cmdline>  (1) 
J2VwaWtfcHl0aG9uJywgJy1waHQnLCAnMS4wJywgJy1waCcsICc3LjQnLCAnLXRuJywgJzgnLCAnLW1hJywgJzUwMCcsICctaW1hZScsICc8aW5maWxlLm1hZT4nLCAnLW9tYWUnLCAnPG91dGZpbGUubWFlPic=

>  <s_epik_input>  (1) 
TzFbQ0gyXVtDSDJdT1tDSF09QzFDKD1PKVtPSF0=

>  <s_glide_docking_method>  (1) 
confgen

>  <s_i_glide_gridfile>  (1) 
gpcr_drd2_6luq_protein_autoprepared_prepared

>  <s_lp_Force_Field>  (1) 
S-OPLS

>  <s_lp_Variant>  (1) 
Pocket2Mol_39-1

>  <s_m_source_file>  (1) 
generated_generic_title2_ligand_Pocket2Mol_2026-06-23_prepared.sdf

>  <GenAI_Model>  (1) 
Pocket2Mol

>  <Protein>  (1) 
generic_title2

$$$$
Pocket2Mol_41
     RDKit          3D

  0  0  0  0  0  0  0  0  0  0999 V3000
M  V30 BEGIN CTAB
M  V30 COUNTS 23 24 0 0 1
M  V30 BEGIN ATOM
M  V30 1 C 9.383535 5.927104 -8.068590 0
M  V30 2 O 10.622510 6.390236 -8.574194 0
M  V30 3 C 10.715537 7.787642 -8.329202 0 CFG=2
M  V30 4 C 10.238020 8.512562 -9.585062 0
M  V30 5 C 12.142219 8.196156 -7.938221 0
M  V30 6 C 9.279769 6.680550 -6.754499 0
M  V30 7 C 11.972916 9.190227 -6.785694 0
M  V30 8 C 9.840790 8.053922 -7.094728 0 CFG=1
M  V30 9 C 10.752354 8.679108 -6.023509 0
M  V30 10 H 8.575424 6.200820 -8.747202 0
M  V30 11 H 9.375222 4.844364 -7.943547 0
M  V30 12 H 10.323856 9.590222 -9.465484 0
M  V30 13 H 10.837568 8.228594 -10.449785 0
M  V30 14 H 9.198661 8.284459 -9.818588 0
M  V30 15 H 12.677566 7.317045 -7.585033 0
M  V30 16 H 12.716900 8.610026 -8.767967 0
M  V30 17 H 8.255379 6.721410 -6.385027 0
M  V30 18 H 9.888668 6.175456 -6.004516 0
M  V30 19 H 12.860977 9.262745 -6.158108 0
M  V30 20 H 11.775413 10.183569 -7.184707 0
M  V30 21 H 9.028651 8.737080 -7.351291 0
M  V30 22 H 11.072320 7.932957 -5.295460 0
M  V30 23 H 10.254531 9.478173 -5.475892 0
M  V30 END ATOM
M  V30 BEGIN BOND
M  V30 1 1 2 1
M  V30 2 1 3 2
M  V30 3 1 3 4 CFG=3
M  V30 4 1 5 3
M  V30 5 1 6 1
M  V30 6 1 7 5
M  V30 7 1 8 3
M  V30 8 1 8 6
M  V30 9 1 9 7
M  V30 10 1 9 8
M  V30 11 1 10 1
M  V30 12 1 11 1
M  V30 13 1 12 4
M  V30 14 1 13 4
M  V30 15 1 14 4
M  V30 16 1 15 5
M  V30 17 1 16 5
M  V30 18 1 17 6
M  V30 19 1 18 6
M  V30 20 1 19 7
M  V30 21 1 20 7
M  V30 22 1 8 21 CFG=3
M  V30 23 1 22 9
M  V30 24 1 23 9
M  V30 END BOND
M  V30 END CTAB
M  END
>  <i_epik_Tot_Q>  (1) 
0

>  <i_epik_Tot_abs_Q>  (1) 
0

>  <i_i_glide_confnum>  (1) 
4

>  <i_i_glide_lignum>  (1) 
46

>  <i_i_glide_posenum>  (1) 
373

>  <i_i_glide_rotatable_bonds>  (1) 
0

>  <i_lp_mmshare_version>  (1) 
72125

>  <i_m_source_file_index>  (1) 
42

>  <i_f3d_flags>  (1) 
0

>  <num_sample>  (1) 
50

>  <b_lp_Chiralities_Consistent>  (1) 
1

>  <r_epik_Charging_Adjusted_Penalty>  (1) 
0

>  <r_epik_Ionization_Penalty>  (1) 
2.4347883345708157e-11

>  <r_epik_Ionization_Penalty_Charging>  (1) 
0

>  <r_epik_Ionization_Penalty_Neutral>  (1) 
2.4347883345708157e-11

>  <r_epik_State_Penalty>  (1) 
-0

>  <r_glide_ring_energy>  (1) 
1.4300080397860451

>  <r_i_docking_score>  (1) 
-4.5070291186579823

>  <r_i_glide_ecoul>  (1) 
-0.28312951591553859

>  <r_i_glide_eff_state_penalty>  (1) 
-0

>  <r_i_glide_einternal>  (1) 
0

>  <r_i_glide_emodel>  (1) 
-22.425552583931108

>  <r_i_glide_emodel_strain>  (1) 
0

>  <r_i_glide_energy>  (1) 
-17.580154879493612

>  <r_i_glide_erotb>  (1) 
0

>  <r_i_glide_esite>  (1) 
0

>  <r_i_glide_evdw>  (1) 
-17.297025363578072

>  <r_i_glide_gscore>  (1) 
-4.5070291186579823

>  <r_i_glide_gscore_strain>  (1) 
0

>  <r_i_glide_hbond>  (1) 
0

>  <r_i_glide_ligand_efficiency>  (1) 
-0.5007810131842203

>  <r_i_glide_ligand_efficiency_ln>  (1) 
-1.4096692333114216

>  <r_i_glide_ligand_efficiency_sa>  (1) 
-1.041666484416039

>  <r_i_glide_lipo>  (1) 
-0.71001802956025295

>  <r_i_glide_metal>  (1) 
-0

>  <r_i_glide_rewards>  (1) 
-2.8896903935314944

>  <r_lp_Energy>  (1) 
5.4699619999999998

>  <r_lp_tautomer_probability>  (1) 
1

>  <s_epik_cmdline>  (1) 
J2VwaWtfcHl0aG9uJywgJy1waHQnLCAnMS4wJywgJy1waCcsICc3LjQnLCAnLXRuJywgJzgnLCAnLW1hJywgJzUwMCcsICctaW1hZScsICc8aW5maWxlLm1hZT4nLCAnLW9tYWUnLCAnPG91dGZpbGUubWFlPic=

>  <s_epik_input>  (1) 
TzFbQ0gyXVtDSDJdW0NASF0oW0NAXTEyW0NIM10pW0NIMl1bQ0gyXVtDSDJdMg==

>  <s_glide_docking_method>  (1) 
confgen

>  <s_i_glide_gridfile>  (1) 
gpcr_drd2_6luq_protein_autoprepared_prepared

>  <s_lp_Force_Field>  (1) 
S-OPLS

>  <s_lp_Variant>  (1) 
Pocket2Mol_41-1

>  <s_m_source_file>  (1) 
generated_generic_title2_ligand_Pocket2Mol_2026-06-23_prepared.sdf

>  <GenAI_Model>  (1) 
Pocket2Mol

>  <Protein>  (1) 
generic_title2

$$$$
Pocket2Mol_43
     RDKit          3D

  0  0  0  0  0  0  0  0  0  0999 V3000
M  V30 BEGIN CTAB
M  V30 COUNTS 8 8 0 0 1
M  V30 BEGIN ATOM
M  V30 1 N 11.775385 7.758018 -4.240972 0
M  V30 2 C 10.975505 7.379408 -5.330762 0
M  V30 3 C 10.664880 8.444907 -6.155292 0
M  V30 4 C 12.062728 9.054384 -4.243563 0
M  V30 5 S 11.375411 9.936852 -5.577591 0
M  V30 6 H 10.675752 6.346480 -5.440605 0
M  V30 7 H 10.066334 8.439885 -7.056641 0
M  V30 8 H 12.673644 9.484576 -3.462101 0
M  V30 END ATOM
M  V30 BEGIN BOND
M  V30 1 1 2 1
M  V30 2 2 3 2
M  V30 3 2 4 1
M  V30 4 1 5 3
M  V30 5 1 5 4
M  V30 6 1 6 2
M  V30 7 1 7 3
M  V30 8 1 8 4
M  V30 END BOND
M  V30 END CTAB
M  END
>  <i_epik_Tot_Q>  (1) 
0

>  <i_epik_Tot_abs_Q>  (1) 
0

>  <i_i_glide_confnum>  (1) 
1

>  <i_i_glide_lignum>  (1) 
48

>  <i_i_glide_posenum>  (1) 
319

>  <i_i_glide_rotatable_bonds>  (1) 
0

>  <i_lp_mmshare_version>  (1) 
72125

>  <i_m_source_file_index>  (1) 
44

>  <i_f3d_flags>  (1) 
0

>  <num_sample>  (1) 
50

>  <b_lp_Chiralities_Consistent>  (1) 
1

>  <r_epik_Charging_Adjusted_Penalty>  (1) 
0

>  <r_epik_Ionization_Penalty>  (1) 
1.4882382677604034e-05

>  <r_epik_Ionization_Penalty_Charging>  (1) 
0

>  <r_epik_Ionization_Penalty_Neutral>  (1) 
1.4882382677604034e-05

>  <r_epik_State_Penalty>  (1) 
-0

>  <r_glide_ring_energy>  (1) 
0

>  <r_i_docking_score>  (1) 
-4.4823729431692305

>  <r_i_glide_ecoul>  (1) 
-1.0090530657878356

>  <r_i_glide_eff_state_penalty>  (1) 
-0

>  <r_i_glide_einternal>  (1) 
0

>  <r_i_glide_emodel>  (1) 
-19.575328627555191

>  <r_i_glide_emodel_strain>  (1) 
0

>  <r_i_glide_energy>  (1) 
-14.986856715105453

>  <r_i_glide_erotb>  (1) 
0

>  <r_i_glide_esite>  (1) 
0

>  <r_i_glide_evdw>  (1) 
-13.977803649317618

>  <r_i_glide_gscore>  (1) 
-4.4823729431692305

>  <r_i_glide_gscore_strain>  (1) 
0

>  <r_i_glide_hbond>  (1) 
0

>  <r_i_glide_ligand_efficiency>  (1) 
-0.8964745886338461

>  <r_i_glide_ligand_efficiency_ln>  (1) 
-1.7177542036200601

>  <r_i_glide_ligand_efficiency_sa>  (1) 
-1.5329499833707636

>  <r_i_glide_lipo>  (1) 
-1.1487914675018414

>  <r_i_glide_metal>  (1) 
-0

>  <r_i_glide_rewards>  (1) 
-2.4833333333333334

>  <r_lp_Energy>  (1) 
1.6688799999999999

>  <r_lp_tautomer_probability>  (1) 
1

>  <s_epik_cmdline>  (1) 
J2VwaWtfcHl0aG9uJywgJy1waHQnLCAnMS4wJywgJy1waCcsICc3LjQnLCAnLXRuJywgJzgnLCAnLW1hJywgJzUwMCcsICctaW1hZScsICc8aW5maWxlLm1hZT4nLCAnLW9tYWUnLCAnPG91dGZpbGUubWFlPic=

>  <s_epik_input>  (1) 
bjFbY0hdW2NIXXNbY0hdMQ==

>  <s_glide_docking_method>  (1) 
confgen

>  <s_i_glide_gridfile>  (1) 
gpcr_drd2_6luq_protein_autoprepared_prepared

>  <s_lp_Force_Field>  (1) 
S-OPLS

>  <s_lp_Variant>  (1) 
Pocket2Mol_43-1

>  <s_m_source_file>  (1) 
generated_generic_title2_ligand_Pocket2Mol_2026-06-23_prepared.sdf

>  <GenAI_Model>  (1) 
Pocket2Mol

>  <Protein>  (1) 
generic_title2

$$$$
Pocket2Mol_13
     RDKit          3D

  0  0  0  0  0  0  0  0  0  0999 V3000
M  V30 BEGIN CTAB
M  V30 COUNTS 17 17 0 0 1
M  V30 BEGIN ATOM
M  V30 1 C 10.347761 6.766131 -6.636868 0
M  V30 2 O 10.341110 5.702238 -7.585023 0
M  V30 3 C 9.557980 5.984685 -8.735944 0
M  V30 4 C 10.175409 7.179221 -9.479964 0 CFG=1
M  V30 5 O 9.375410 7.509574 -10.588753 0
M  V30 6 C 11.007797 8.003555 -7.261412 0
M  V30 7 C 10.280075 8.390227 -8.552070 0
M  V30 8 H 9.329837 6.986210 -6.309669 0
M  V30 9 H 10.903913 6.447801 -5.754832 0
M  V30 10 H 8.527512 6.185061 -8.439947 0
M  V30 11 H 9.542528 5.102697 -9.376980 0
M  V30 12 H 11.169627 6.913593 -9.837959 0
M  V30 13 H 8.471375 7.598008 -10.274315 0
M  V30 14 H 10.998249 8.835617 -6.556981 0
M  V30 15 H 12.053998 7.786315 -7.480622 0
M  V30 16 H 10.809651 9.197378 -9.056475 0
M  V30 17 H 9.282964 8.762948 -8.309515 0
M  V30 END ATOM
M  V30 BEGIN BOND
M  V30 1 1 2 1
M  V30 2 1 3 2
M  V30 3 1 4 3
M  V30 4 1 5 4
M  V30 5 1 6 1
M  V30 6 1 7 4
M  V30 7 1 7 6
M  V30 8 1 8 1
M  V30 9 1 9 1
M  V30 10 1 10 3
M  V30 11 1 11 3
M  V30 12 1 4 12 CFG=3
M  V30 13 1 13 5
M  V30 14 1 14 6
M  V30 15 1 15 6
M  V30 16 1 16 7
M  V30 17 1 17 7
M  V30 END BOND
M  V30 END CTAB
M  END
>  <i_epik_Tot_Q>  (1) 
0

>  <i_epik_Tot_abs_Q>  (1) 
0

>  <i_i_glide_confnum>  (1) 
1

>  <i_i_glide_lignum>  (1) 
16

>  <i_i_glide_posenum>  (1) 
346

>  <i_i_glide_rotatable_bonds>  (1) 
1

>  <i_lp_mmshare_version>  (1) 
72125

>  <i_m_source_file_index>  (1) 
14

>  <i_f3d_flags>  (1) 
0

>  <num_sample>  (1) 
50

>  <b_lp_Chiralities_Consistent>  (1) 
1

>  <r_epik_Charging_Adjusted_Penalty>  (1) 
0

>  <r_epik_Ionization_Penalty>  (1) 
4.2263924331700322e-08

>  <r_epik_Ionization_Penalty_Charging>  (1) 
0

>  <r_epik_Ionization_Penalty_Neutral>  (1) 
4.2263924331700322e-08

>  <r_epik_State_Penalty>  (1) 
-0

>  <r_glide_ring_energy>  (1) 
0

>  <r_i_docking_score>  (1) 
-4.4797903143587465

>  <r_i_glide_ecoul>  (1) 
-3.9621114191952294

>  <r_i_glide_eff_state_penalty>  (1) 
-0

>  <r_i_glide_einternal>  (1) 
0.069730412865361635

>  <r_i_glide_emodel>  (1) 
-23.249729949814192

>  <r_i_glide_emodel_strain>  (1) 
0

>  <r_i_glide_energy>  (1) 
-17.60532716055771

>  <r_i_glide_erotb>  (1) 
0

>  <r_i_glide_esite>  (1) 
0

>  <r_i_glide_evdw>  (1) 
-13.643215741362482

>  <r_i_glide_gscore>  (1) 
-4.4797903143587465

>  <r_i_glide_gscore_strain>  (1) 
0

>  <r_i_glide_hbond>  (1) 
-0.16

>  <r_i_glide_ligand_efficiency>  (1) 
-0.63997004490839238

>  <r_i_glide_ligand_efficiency_ln>  (1) 
-1.5206812454192853

>  <r_i_glide_ligand_efficiency_sa>  (1) 
-1.2242186549455101

>  <r_i_glide_lipo>  (1) 
-0.43168806873778076

>  <r_i_glide_metal>  (1) 
-0

>  <r_i_glide_rewards>  (1) 
-2.6116247456735571

>  <r_lp_Energy>  (1) 
6.7642049999999996

>  <r_lp_tautomer_probability>  (1) 
1

>  <s_epik_cmdline>  (1) 
J2VwaWtfcHl0aG9uJywgJy1waHQnLCAnMS4wJywgJy1waCcsICc3LjQnLCAnLXRuJywgJzgnLCAnLW1hJywgJzUwMCcsICctaW1hZScsICc8aW5maWxlLm1hZT4nLCAnLW9tYWUnLCAnPG91dGZpbGUubWFlPic=

>  <s_epik_input>  (1) 
W0NIMl0xW0NIMl1bQ0gyXU9bQ0gyXVtDQEhdMVtPSF0=

>  <s_glide_docking_method>  (1) 
confgen

>  <s_i_glide_gridfile>  (1) 
gpcr_drd2_6luq_protein_autoprepared_prepared

>  <s_lp_Force_Field>  (1) 
S-OPLS

>  <s_lp_Variant>  (1) 
Pocket2Mol_13-1

>  <s_m_source_file>  (1) 
generated_generic_title2_ligand_Pocket2Mol_2026-06-23_prepared.sdf

>  <GenAI_Model>  (1) 
Pocket2Mol

>  <Protein>  (1) 
generic_title2

$$$$
Pocket2Mol_18
     RDKit          3D

  0  0  0  0  0  0  0  0  0  0999 V3000
M  V30 BEGIN CTAB
M  V30 COUNTS 14 14 0 0 1
M  V30 BEGIN ATOM
M  V30 1 N 7.218036 6.487639 -11.586833 0 CHG=1
M  V30 2 C 8.296016 5.673139 -11.632524 0
M  V30 3 C 8.654783 5.050260 -12.846168 0
M  V30 4 C 7.876645 5.290277 -13.998595 0
M  V30 5 N 8.207584 4.688598 -15.210443 0
M  V30 6 C 6.759174 6.147217 -13.908481 0
M  V30 7 C 6.447823 6.742661 -12.668258 0
M  V30 8 H 8.836101 5.543977 -10.705234 0
M  V30 9 H 9.515996 4.398372 -12.886560 0
M  V30 10 H 7.665774 4.845095 -16.049032 0
M  V30 11 H 9.002798 4.071383 -15.299749 0
M  V30 12 H 6.145724 6.348690 -14.775285 0
M  V30 13 H 5.611868 7.409785 -12.512107 0
M  V30 14 H 6.975393 6.929144 -10.697806 0
M  V30 END ATOM
M  V30 BEGIN BOND
M  V30 1 1 2 1
M  V30 2 2 3 2
M  V30 3 1 4 3
M  V30 4 1 5 4
M  V30 5 2 6 4
M  V30 6 2 7 1
M  V30 7 1 7 6
M  V30 8 1 8 2
M  V30 9 1 9 3
M  V30 10 1 10 5
M  V30 11 1 11 5
M  V30 12 1 12 6
M  V30 13 1 13 7
M  V30 14 1 14 1
M  V30 END BOND
M  V30 END CTAB
M  END
>  <i_epik_Tot_Q>  (1) 
1

>  <i_epik_Tot_abs_Q>  (1) 
1

>  <i_i_glide_confnum>  (1) 
1

>  <i_i_glide_lignum>  (1) 
21

>  <i_i_glide_posenum>  (1) 
84

>  <i_i_glide_rotatable_bonds>  (1) 
0

>  <i_lp_mmshare_version>  (1) 
72125

>  <i_m_source_file_index>  (1) 
19

>  <i_f3d_flags>  (1) 
0

>  <num_sample>  (1) 
50

>  <b_lp_Chiralities_Consistent>  (1) 
1

>  <r_epik_Charging_Adjusted_Penalty>  (1) 
0.023410508937706027

>  <r_epik_Ionization_Penalty>  (1) 
0.011711918016166721

>  <r_epik_Ionization_Penalty_Charging>  (1) 
0.011705254468853022

>  <r_epik_Ionization_Penalty_Neutral>  (1) 
6.6635473136990569e-06

>  <r_epik_State_Penalty>  (1) 
0.011705254468853005

>  <r_glide_ring_energy>  (1) 
0

>  <r_i_docking_score>  (1) 
-4.4557680016097274

>  <r_i_glide_ecoul>  (1) 
-7.3623387721455824

>  <r_i_glide_eff_state_penalty>  (1) 
0.011705254468853005

>  <r_i_glide_einternal>  (1) 
0

>  <r_i_glide_emodel>  (1) 
-24.910294270280765

>  <r_i_glide_emodel_strain>  (1) 
0

>  <r_i_glide_energy>  (1) 
-16.537240726296307

>  <r_i_glide_erotb>  (1) 
0

>  <r_i_glide_esite>  (1) 
-0.10000000000000001

>  <r_i_glide_evdw>  (1) 
-9.1749019541507248

>  <r_i_glide_gscore>  (1) 
-4.4674732560785806

>  <r_i_glide_gscore_strain>  (1) 
0

>  <r_i_glide_hbond>  (1) 
-0.20000000000000001

>  <r_i_glide_ligand_efficiency>  (1) 
-0.63653828594424677

>  <r_i_glide_ligand_efficiency_ln>  (1) 
-1.5125267832892293

>  <r_i_glide_ligand_efficiency_sa>  (1) 
-1.2176539362112373

>  <r_i_glide_lipo>  (1) 
-0.35437734254920727

>  <r_i_glide_metal>  (1) 
-0

>  <r_i_glide_rewards>  (1) 
-2.25

>  <r_lp_Energy>  (1) 
13.062742999999999

>  <r_lp_tautomer_probability>  (1) 
0.99999999993680011

>  <s_epik_cmdline>  (1) 
J2VwaWtfcHl0aG9uJywgJy1waHQnLCAnMS4wJywgJy1waCcsICc3LjQnLCAnLXRuJywgJzgnLCAnLW1hJywgJzUwMCcsICctaW1hZScsICc8aW5maWxlLm1hZT4nLCAnLW9tYWUnLCAnPG91dGZpbGUubWFlPic=

>  <s_epik_input>  (1) 
W2NIXTFbY0hdbltjSF1bY0hdYzFbTkgyXQ==

>  <s_glide_docking_method>  (1) 
confgen

>  <s_i_glide_gridfile>  (1) 
gpcr_drd2_6luq_protein_autoprepared_prepared

>  <s_lp_Force_Field>  (1) 
S-OPLS

>  <s_lp_Variant>  (1) 
Pocket2Mol_18-1

>  <s_m_source_file>  (1) 
generated_generic_title2_ligand_Pocket2Mol_2026-06-23_prepared.sdf

>  <GenAI_Model>  (1) 
Pocket2Mol

>  <Protein>  (1) 
generic_title2

$$$$
Pocket2Mol_7
     RDKit          3D

  0  0  0  0  0  0  0  0  0  0999 V3000
M  V30 BEGIN CTAB
M  V30 COUNTS 13 13 0 0 1
M  V30 BEGIN ATOM
M  V30 1 N 11.360041 7.634583 -8.672974 0
M  V30 2 C 11.860313 8.407772 -7.666967 0
M  V30 3 C 11.048871 8.611919 -6.671055 0
M  V30 4 C 10.175410 7.400024 -8.183016 0
M  V30 5 C 11.369471 9.432952 -5.438526 0
M  V30 6 C 9.726698 7.977586 -6.784861 0
M  V30 7 H 12.866186 8.793620 -7.748693 0
M  V30 8 H 9.430849 6.795541 -8.708589 0
M  V30 9 H 10.614678 10.208256 -5.296656 0
M  V30 10 H 11.375688 8.796287 -4.553723 0
M  V30 11 H 12.345521 9.911771 -5.523982 0
M  V30 12 H 8.897428 8.679754 -6.871856 0
M  V30 13 H 9.546828 7.194936 -6.047465 0
M  V30 END ATOM
M  V30 BEGIN BOND
M  V30 1 1 2 1
M  V30 2 2 3 2
M  V30 3 2 4 1
M  V30 4 1 5 3
M  V30 5 1 6 3
M  V30 6 1 6 4
M  V30 7 1 7 2
M  V30 8 1 8 4
M  V30 9 1 9 5
M  V30 10 1 10 5
M  V30 11 1 11 5
M  V30 12 1 12 6
M  V30 13 1 13 6
M  V30 END BOND
M  V30 END CTAB
M  END
>  <i_epik_Tot_Q>  (1) 
0

>  <i_epik_Tot_abs_Q>  (1) 
0

>  <i_i_glide_confnum>  (1) 
1

>  <i_i_glide_lignum>  (1) 
8

>  <i_i_glide_posenum>  (1) 
273

>  <i_i_glide_rotatable_bonds>  (1) 
0

>  <i_lp_mmshare_version>  (1) 
72125

>  <i_m_source_file_index>  (1) 
8

>  <i_f3d_flags>  (1) 
0

>  <num_sample>  (1) 
50

>  <b_lp_Chiralities_Consistent>  (1) 
1

>  <r_epik_Charging_Adjusted_Penalty>  (1) 
0

>  <r_epik_Ionization_Penalty>  (1) 
0

>  <r_epik_Ionization_Penalty_Charging>  (1) 
0

>  <r_epik_Ionization_Penalty_Neutral>  (1) 
0

>  <r_epik_State_Penalty>  (1) 
-0

>  <r_glide_ring_energy>  (1) 
0

>  <r_i_docking_score>  (1) 
-4.4537521311834283

>  <r_i_glide_ecoul>  (1) 
-0.815810405750657

>  <r_i_glide_eff_state_penalty>  (1) 
-0

>  <r_i_glide_einternal>  (1) 
0

>  <r_i_glide_emodel>  (1) 
-21.852280997575456

>  <r_i_glide_emodel_strain>  (1) 
0

>  <r_i_glide_energy>  (1) 
-16.927643034861926

>  <r_i_glide_erotb>  (1) 
0

>  <r_i_glide_esite>  (1) 
-0.05113674973806575

>  <r_i_glide_evdw>  (1) 
-16.111832629111269

>  <r_i_glide_gscore>  (1) 
-4.4537521311834283

>  <r_i_glide_gscore_strain>  (1) 
0

>  <r_i_glide_hbond>  (1) 
0

>  <r_i_glide_ligand_efficiency>  (1) 
-0.74229202186390475

>  <r_i_glide_ligand_efficiency_ln>  (1) 
-1.5953208649507791

>  <r_i_glide_ligand_efficiency_sa>  (1) 
-1.3488341188239064

>  <r_i_glide_lipo>  (1) 
-0.84965218912720086

>  <r_i_glide_metal>  (1) 
-0

>  <r_i_glide_rewards>  (1) 
-2.625

>  <r_lp_Energy>  (1) 
-3.9959819999999997

>  <r_lp_tautomer_probability>  (1) 
1

>  <s_epik_Chemistry_Notes>  (1) 
This compound has an imine and may undergo hydrolysis.

>  <s_epik_cmdline>  (1) 
J2VwaWtfcHl0aG9uJywgJy1waHQnLCAnMS4wJywgJy1waCcsICc3LjQnLCAnLXRuJywgJzgnLCAnLW1hJywgJzUwMCcsICctaW1hZScsICc8aW5maWxlLm1hZT4nLCAnLW9tYWUnLCAnPG91dGZpbGUubWFlPic=

>  <s_epik_input>  (1) 
W0NIMl0xW0NIXT1OW0NIXT1DMVtDSDNd

>  <s_glide_docking_method>  (1) 
confgen

>  <s_i_glide_gridfile>  (1) 
gpcr_drd2_6luq_protein_autoprepared_prepared

>  <s_lp_Force_Field>  (1) 
S-OPLS

>  <s_lp_Variant>  (1) 
Pocket2Mol_7-1

>  <s_m_source_file>  (1) 
generated_generic_title2_ligand_Pocket2Mol_2026-06-23_prepared.sdf

>  <GenAI_Model>  (1) 
Pocket2Mol

>  <Protein>  (1) 
generic_title2

$$$$
Pocket2Mol_11
     RDKit          3D

  0  0  0  0  0  0  0  0  0  0999 V3000
M  V30 BEGIN CTAB
M  V30 COUNTS 14 14 0 0 1
M  V30 BEGIN ATOM
M  V30 1 O 11.775406 7.574705 -4.137549 0
M  V30 2 C 10.975411 7.304921 -5.185020 0
M  V30 3 C 12.040184 9.019914 -4.327693 0
M  V30 4 C 10.709877 8.289294 -5.984984 0
M  V30 5 C 9.829371 8.195344 -7.213192 0
M  V30 6 C 11.320732 9.579668 -5.644463 0
M  V30 7 H 10.633915 6.280956 -5.243845 0
M  V30 8 H 13.116714 9.185618 -4.384127 0
M  V30 9 H 11.685639 9.559587 -3.448382 0
M  V30 10 H 8.961618 8.847732 -7.114910 0
M  V30 11 H 10.383525 8.490974 -8.103976 0
M  V30 12 H 9.463908 7.178136 -7.360965 0
M  V30 13 H 12.021682 9.913352 -6.409784 0
M  V30 14 H 10.576383 10.346765 -5.431632 0
M  V30 END ATOM
M  V30 BEGIN BOND
M  V30 1 1 2 1
M  V30 2 1 3 1
M  V30 3 2 4 2
M  V30 4 1 5 4
M  V30 5 1 6 3
M  V30 6 1 6 4
M  V30 7 1 7 2
M  V30 8 1 8 3
M  V30 9 1 9 3
M  V30 10 1 10 5
M  V30 11 1 11 5
M  V30 12 1 12 5
M  V30 13 1 13 6
M  V30 14 1 14 6
M  V30 END BOND
M  V30 END CTAB
M  END
>  <i_epik_Tot_Q>  (1) 
0

>  <i_epik_Tot_abs_Q>  (1) 
0

>  <i_i_glide_confnum>  (1) 
1

>  <i_i_glide_lignum>  (1) 
14

>  <i_i_glide_posenum>  (1) 
305

>  <i_i_glide_rotatable_bonds>  (1) 
0

>  <i_lp_mmshare_version>  (1) 
72125

>  <i_m_source_file_index>  (1) 
12

>  <i_f3d_flags>  (1) 
0

>  <num_sample>  (1) 
50

>  <b_lp_Chiralities_Consistent>  (1) 
1

>  <r_epik_Charging_Adjusted_Penalty>  (1) 
0

>  <r_epik_Ionization_Penalty>  (1) 
0

>  <r_epik_Ionization_Penalty_Charging>  (1) 
0

>  <r_epik_Ionization_Penalty_Neutral>  (1) 
0

>  <r_epik_State_Penalty>  (1) 
-0

>  <r_glide_ring_energy>  (1) 
0

>  <r_i_docking_score>  (1) 
-4.4489764694418001

>  <r_i_glide_ecoul>  (1) 
-0.30045837656925728

>  <r_i_glide_eff_state_penalty>  (1) 
-0

>  <r_i_glide_einternal>  (1) 
0

>  <r_i_glide_emodel>  (1) 
-19.706483506411224

>  <r_i_glide_emodel_strain>  (1) 
0

>  <r_i_glide_energy>  (1) 
-15.356250199710303

>  <r_i_glide_erotb>  (1) 
0

>  <r_i_glide_esite>  (1) 
0

>  <r_i_glide_evdw>  (1) 
-15.055791823141046

>  <r_i_glide_gscore>  (1) 
-4.4489764694418001

>  <r_i_glide_gscore_strain>  (1) 
0

>  <r_i_glide_hbond>  (1) 
0

>  <r_i_glide_ligand_efficiency>  (1) 
-0.74149607824030006

>  <r_i_glide_ligand_efficiency_ln>  (1) 
-1.5936102370137137

>  <r_i_glide_ligand_efficiency_sa>  (1) 
-1.3473877932747207

>  <r_i_glide_lipo>  (1) 
-1.1094514551326917

>  <r_i_glide_metal>  (1) 
-0

>  <r_i_glide_rewards>  (1) 
-2.5416666666666665

>  <r_lp_Energy>  (1) 
-7.9393969999999996

>  <r_lp_tautomer_probability>  (1) 
1

>  <s_epik_cmdline>  (1) 
J2VwaWtfcHl0aG9uJywgJy1waHQnLCAnMS4wJywgJy1waCcsICc3LjQnLCAnLXRuJywgJzgnLCAnLW1hJywgJzUwMCcsICctaW1hZScsICc8aW5maWxlLm1hZT4nLCAnLW9tYWUnLCAnPG91dGZpbGUubWFlPic=

>  <s_epik_input>  (1) 
W0NIMl0xW0NIMl1PW0NIXT1DMVtDSDNd

>  <s_glide_docking_method>  (1) 
confgen

>  <s_i_glide_gridfile>  (1) 
gpcr_drd2_6luq_protein_autoprepared_prepared

>  <s_lp_Force_Field>  (1) 
S-OPLS

>  <s_lp_Variant>  (1) 
Pocket2Mol_11-1

>  <s_m_source_file>  (1) 
generated_generic_title2_ligand_Pocket2Mol_2026-06-23_prepared.sdf

>  <GenAI_Model>  (1) 
Pocket2Mol

>  <Protein>  (1) 
generic_title2

$$$$
Pocket2Mol_14
     RDKit          3D

  0  0  0  0  0  0  0  0  0  0999 V3000
M  V30 BEGIN CTAB
M  V30 COUNTS 17 17 0 0 1
M  V30 BEGIN ATOM
M  V30 1 C 11.817912 8.430855 -7.781601 0
M  V30 2 O 10.652729 8.193572 -8.555577 0
M  V30 3 C 11.434229 8.981819 -6.396565 0
M  V30 4 O 11.264164 7.987352 -5.394725 0
M  V30 5 C 9.956061 6.997301 -8.235716 0
M  V30 6 C 10.575410 6.792316 -5.752708 0
M  V30 7 C 9.444553 6.958264 -6.786236 0
M  V30 8 H 12.468186 7.557904 -7.720768 0
M  V30 9 H 12.386258 9.190201 -8.316021 0
M  V30 10 H 12.222546 9.646571 -6.042308 0
M  V30 11 H 10.533041 9.590459 -6.462442 0
M  V30 12 H 9.105629 6.923873 -8.913747 0
M  V30 13 H 10.586692 6.132363 -8.445167 0
M  V30 14 H 10.171789 6.379021 -4.828638 0
M  V30 15 H 11.299412 6.058382 -6.108725 0
M  V30 16 H 8.826474 7.828829 -6.563323 0
M  V30 17 H 8.779232 6.098528 -6.698948 0
M  V30 END ATOM
M  V30 BEGIN BOND
M  V30 1 1 2 1
M  V30 2 1 3 1
M  V30 3 1 4 3
M  V30 4 1 5 2
M  V30 5 1 6 4
M  V30 6 1 7 5
M  V30 7 1 7 6
M  V30 8 1 8 1
M  V30 9 1 9 1
M  V30 10 1 10 3
M  V30 11 1 11 3
M  V30 12 1 12 5
M  V30 13 1 13 5
M  V30 14 1 14 6
M  V30 15 1 15 6
M  V30 16 1 16 7
M  V30 17 1 17 7
M  V30 END BOND
M  V30 END CTAB
M  END
>  <i_epik_Tot_Q>  (1) 
0

>  <i_epik_Tot_abs_Q>  (1) 
0

>  <i_i_glide_confnum>  (1) 
4

>  <i_i_glide_lignum>  (1) 
17

>  <i_i_glide_posenum>  (1) 
169

>  <i_i_glide_rotatable_bonds>  (1) 
0

>  <i_lp_mmshare_version>  (1) 
72125

>  <i_m_source_file_index>  (1) 
15

>  <i_f3d_flags>  (1) 
0

>  <num_sample>  (1) 
50

>  <b_lp_Chiralities_Consistent>  (1) 
1

>  <r_epik_Charging_Adjusted_Penalty>  (1) 
0

>  <r_epik_Ionization_Penalty>  (1) 
3.933197540425548e-12

>  <r_epik_Ionization_Penalty_Charging>  (1) 
0

>  <r_epik_Ionization_Penalty_Neutral>  (1) 
3.933197540425548e-12

>  <r_epik_State_Penalty>  (1) 
-0

>  <r_glide_ring_energy>  (1) 
0.00034554738616163878

>  <r_i_docking_score>  (1) 
-4.4484040810403664

>  <r_i_glide_ecoul>  (1) 
-0.98694003654504026

>  <r_i_glide_eff_state_penalty>  (1) 
-0

>  <r_i_glide_einternal>  (1) 
0

>  <r_i_glide_emodel>  (1) 
-22.008879767688725

>  <r_i_glide_emodel_strain>  (1) 
0

>  <r_i_glide_energy>  (1) 
-17.138035938720581

>  <r_i_glide_erotb>  (1) 
0

>  <r_i_glide_esite>  (1) 
0

>  <r_i_glide_evdw>  (1) 
-16.151095902175541

>  <r_i_glide_gscore>  (1) 
-4.4484040810403664

>  <r_i_glide_gscore_strain>  (1) 
0

>  <r_i_glide_hbond>  (1) 
0

>  <r_i_glide_ligand_efficiency>  (1) 
-0.63548629729148087

>  <r_i_glide_ligand_efficiency_ln>  (1) 
-1.5100270734553356

>  <r_i_glide_ligand_efficiency_sa>  (1) 
-1.2156415543134387

>  <r_i_glide_lipo>  (1) 
-0.81037273860340109

>  <r_i_glide_metal>  (1) 
-0

>  <r_i_glide_rewards>  (1) 
-2.6824355418464316

>  <r_lp_Energy>  (1) 
9.641

>  <r_lp_tautomer_probability>  (1) 
1

>  <s_epik_cmdline>  (1) 
J2VwaWtfcHl0aG9uJywgJy1waHQnLCAnMS4wJywgJy1waCcsICc3LjQnLCAnLXRuJywgJzgnLCAnLW1hJywgJzUwMCcsICctaW1hZScsICc8aW5maWxlLm1hZT4nLCAnLW9tYWUnLCAnPG91dGZpbGUubWFlPic=

>  <s_epik_input>  (1) 
W0NIMl0xT1tDSDJdW0NIMl1bQ0gyXU9bQ0gyXTE=

>  <s_glide_docking_method>  (1) 
confgen

>  <s_i_glide_gridfile>  (1) 
gpcr_drd2_6luq_protein_autoprepared_prepared

>  <s_lp_Force_Field>  (1) 
S-OPLS

>  <s_lp_Variant>  (1) 
Pocket2Mol_14-1

>  <s_m_source_file>  (1) 
generated_generic_title2_ligand_Pocket2Mol_2026-06-23_prepared.sdf

>  <GenAI_Model>  (1) 
Pocket2Mol

>  <Protein>  (1) 
generic_title2

$$$$
Pocket2Mol_27
     RDKit          3D

  0  0  0  0  0  0  0  0  0  0999 V3000
M  V30 BEGIN CTAB
M  V30 COUNTS 13 13 0 0 1
M  V30 BEGIN ATOM
M  V30 1 N 9.775622 7.305310 -9.061590 0
M  V30 2 C 9.775254 7.156800 -7.690333 0
M  V30 3 C 10.678102 7.742994 -6.882607 0
M  V30 4 C 10.755558 8.080556 -9.654716 0
M  V30 5 O 10.665532 7.590323 -5.554245 0
M  V30 6 C 11.738758 8.606439 -7.476525 0
M  V30 7 O 12.575318 9.190227 -6.785061 0
M  V30 8 C 11.719217 8.724577 -8.960967 0
M  V30 9 H 8.977468 6.528846 -7.316544 0
M  V30 10 H 10.684255 8.130147 -10.731419 0
M  V30 11 H 9.944544 7.013588 -5.348405 0
M  V30 12 H 12.470140 9.323733 -9.453769 0
M  V30 13 H 9.046543 6.878587 -9.621587 0
M  V30 END ATOM
M  V30 BEGIN BOND
M  V30 1 1 2 1
M  V30 2 2 3 2
M  V30 3 1 4 1
M  V30 4 1 5 3
M  V30 5 1 6 3
M  V30 6 2 7 6
M  V30 7 2 8 4
M  V30 8 1 8 6
M  V30 9 1 9 2
M  V30 10 1 10 4
M  V30 11 1 11 5
M  V30 12 1 12 8
M  V30 13 1 13 1
M  V30 END BOND
M  V30 END CTAB
M  END
>  <i_epik_Tot_Q>  (1) 
0

>  <i_epik_Tot_abs_Q>  (1) 
0

>  <i_i_glide_confnum>  (1) 
1

>  <i_i_glide_lignum>  (1) 
31

>  <i_i_glide_posenum>  (1) 
336

>  <i_i_glide_rotatable_bonds>  (1) 
1

>  <i_lp_mmshare_version>  (1) 
72125

>  <i_m_source_file_index>  (1) 
28

>  <i_f3d_flags>  (1) 
0

>  <num_sample>  (1) 
50

>  <b_lp_Chiralities_Consistent>  (1) 
1

>  <r_epik_Charging_Adjusted_Penalty>  (1) 
0.000203171374695584

>  <r_epik_Ionization_Penalty>  (1) 
0.014901896624084464

>  <r_epik_Ionization_Penalty_Charging>  (1) 
0.000203171374695584

>  <r_epik_Ionization_Penalty_Neutral>  (1) 
0.01469872524938888

>  <r_epik_State_Penalty>  (1) 
-0

>  <r_glide_ring_energy>  (1) 
0

>  <r_i_docking_score>  (1) 
-4.4383269076676894

>  <r_i_glide_ecoul>  (1) 
-3.7212548233722833

>  <r_i_glide_eff_state_penalty>  (1) 
-0

>  <r_i_glide_einternal>  (1) 
0.012675832578270763

>  <r_i_glide_emodel>  (1) 
-26.507195703549502

>  <r_i_glide_emodel_strain>  (1) 
0

>  <r_i_glide_energy>  (1) 
-20.089610244765954

>  <r_i_glide_erotb>  (1) 
0

>  <r_i_glide_esite>  (1) 
-0.10000000000000001

>  <r_i_glide_evdw>  (1) 
-16.36835542139367

>  <r_i_glide_gscore>  (1) 
-4.4383269076676894

>  <r_i_glide_gscore_strain>  (1) 
0

>  <r_i_glide_hbond>  (1) 
-0.011546176732699913

>  <r_i_glide_ligand_efficiency>  (1) 
-0.55479086345846118

>  <r_i_glide_ligand_efficiency_ln>  (1) 
-1.4412765586212692

>  <r_i_glide_ligand_efficiency_sa>  (1) 
-1.1095817269169226

>  <r_i_glide_lipo>  (1) 
-0.70017473635946348

>  <r_i_glide_metal>  (1) 
-0

>  <r_i_glide_rewards>  (1) 
-2.25

>  <r_lp_Energy>  (1) 
11.500328

>  <r_lp_tautomer_probability>  (1) 
1

>  <s_epik_cmdline>  (1) 
J2VwaWtfcHl0aG9uJywgJy1waHQnLCAnMS4wJywgJy1waCcsICc3LjQnLCAnLXRuJywgJzgnLCAnLW1hJywgJzUwMCcsICctaW1hZScsICc8aW5maWxlLm1hZT4nLCAnLW9tYWUnLCAnPG91dGZpbGUubWFlPic=

>  <s_epik_input>  (1) 
W09IXWMxW2NIXW5bY0hdW2NIXWMxW09IXQ==

>  <s_glide_docking_method>  (1) 
confgen

>  <s_i_glide_gridfile>  (1) 
gpcr_drd2_6luq_protein_autoprepared_prepared

>  <s_lp_Force_Field>  (1) 
S-OPLS

>  <s_lp_Variant>  (1) 
Pocket2Mol_27-1

>  <s_m_source_file>  (1) 
generated_generic_title2_ligand_Pocket2Mol_2026-06-23_prepared.sdf

>  <GenAI_Model>  (1) 
Pocket2Mol

>  <Protein>  (1) 
generic_title2

$$$$
Pocket2Mol_3
     RDKit          3D

  0  0  0  0  0  0  0  0  0  0999 V3000
M  V30 BEGIN CTAB
M  V30 COUNTS 9 9 0 0 1
M  V30 BEGIN ATOM
M  V30 1 N 12.575389 9.190226 -2.752524 0
M  V30 2 C 12.575404 7.888197 -2.354305 0
M  V30 3 C 12.063292 7.156925 -3.380486 0
M  V30 4 C 11.775355 8.140038 -4.384999 0
M  V30 5 N 12.090570 9.376869 -3.991746 0
M  V30 6 H 12.913656 9.967215 -2.191792 0
M  V30 7 H 12.936199 7.588654 -1.381925 0
M  V30 8 H 11.913646 6.086921 -3.416945 0
M  V30 9 H 11.353736 7.995176 -5.369595 0
M  V30 END ATOM
M  V30 BEGIN BOND
M  V30 1 1 2 1
M  V30 2 2 3 2
M  V30 3 1 4 3
M  V30 4 1 5 1
M  V30 5 2 5 4
M  V30 6 1 6 1
M  V30 7 1 7 2
M  V30 8 1 8 3
M  V30 9 1 9 4
M  V30 END BOND
M  V30 END CTAB
M  END
>  <i_epik_Tot_Q>  (1) 
0

>  <i_epik_Tot_abs_Q>  (1) 
0

>  <i_i_glide_confnum>  (1) 
1

>  <i_i_glide_lignum>  (1) 
4

>  <i_i_glide_posenum>  (1) 
373

>  <i_i_glide_rotatable_bonds>  (1) 
0

>  <i_lp_mmshare_version>  (1) 
72125

>  <i_m_source_file_index>  (1) 
4

>  <i_f3d_flags>  (1) 
0

>  <num_sample>  (1) 
50

>  <b_lp_Chiralities_Consistent>  (1) 
1

>  <r_epik_Charging_Adjusted_Penalty>  (1) 
0

>  <r_epik_Ionization_Penalty>  (1) 
1.0045315435319e-05

>  <r_epik_Ionization_Penalty_Charging>  (1) 
0

>  <r_epik_Ionization_Penalty_Neutral>  (1) 
1.0045315435319e-05

>  <r_epik_State_Penalty>  (1) 
-0

>  <r_glide_ring_energy>  (1) 
0

>  <r_i_docking_score>  (1) 
-4.4188932961812046

>  <r_i_glide_ecoul>  (1) 
-3.2507950471623559

>  <r_i_glide_eff_state_penalty>  (1) 
-0

>  <r_i_glide_einternal>  (1) 
0

>  <r_i_glide_emodel>  (1) 
-19.771234380869803

>  <r_i_glide_emodel_strain>  (1) 
0

>  <r_i_glide_energy>  (1) 
-14.749719133027385

>  <r_i_glide_erotb>  (1) 
0

>  <r_i_glide_esite>  (1) 
0

>  <r_i_glide_evdw>  (1) 
-11.498924085865029

>  <r_i_glide_gscore>  (1) 
-4.4188932961812046

>  <r_i_glide_gscore_strain>  (1) 
0

>  <r_i_glide_hbond>  (1) 
-0.32000000000000001

>  <r_i_glide_ligand_efficiency>  (1) 
-0.88377865923624088

>  <r_i_glide_ligand_efficiency_ln>  (1) 
-1.6934272607617755

>  <r_i_glide_ligand_efficiency_sa>  (1) 
-1.5112402494801531

>  <r_i_glide_lipo>  (1) 
-0.7863278348135998

>  <r_i_glide_metal>  (1) 
-0

>  <r_i_glide_rewards>  (1) 
-2.25

>  <r_lp_Energy>  (1) 
2.3130189999999997

>  <r_lp_tautomer_probability>  (1) 
1

>  <s_epik_cmdline>  (1) 
J2VwaWtfcHl0aG9uJywgJy1waHQnLCAnMS4wJywgJy1waCcsICc3LjQnLCAnLXRuJywgJzgnLCAnLW1hJywgJzUwMCcsICctaW1hZScsICc8aW5maWxlLm1hZT4nLCAnLW9tYWUnLCAnPG91dGZpbGUubWFlPic=

>  <s_epik_input>  (1) 
W25IXTFbY0hdW2NIXVtjSF1uMQ==

>  <s_glide_docking_method>  (1) 
confgen

>  <s_i_glide_gridfile>  (1) 
gpcr_drd2_6luq_protein_autoprepared_prepared

>  <s_lp_Force_Field>  (1) 
S-OPLS

>  <s_lp_Variant>  (1) 
Pocket2Mol_3-1

>  <s_m_source_file>  (1) 
generated_generic_title2_ligand_Pocket2Mol_2026-06-23_prepared.sdf

>  <GenAI_Model>  (1) 
Pocket2Mol

>  <Protein>  (1) 
generic_title2

$$$$
Pocket2Mol_29
     RDKit          3D

  0  0  0  0  0  0  0  0  0  0999 V3000
M  V30 BEGIN CTAB
M  V30 COUNTS 14 14 0 0 1
M  V30 BEGIN ATOM
M  V30 1 N 11.280018 7.741459 -9.494203 0
M  V30 2 C 10.088729 7.462422 -8.921226 0
M  V30 3 C 9.794224 7.821813 -7.604402 0
M  V30 4 C 10.787313 8.492253 -6.892986 0
M  V30 5 O 10.575414 8.891010 -5.588212 0
M  V30 6 C 12.150337 8.390262 -8.704475 0
M  V30 7 N 11.992495 8.790200 -7.431964 0
M  V30 8 C 11.552042 9.706142 -4.945777 0
M  V30 9 H 9.363938 6.942774 -9.530243 0
M  V30 10 H 8.835179 7.593146 -7.159607 0
M  V30 11 H 13.106881 8.617170 -9.150612 0
M  V30 12 H 11.202988 9.973030 -3.947989 0
M  V30 13 H 12.504432 9.185861 -4.833634 0
M  V30 14 H 11.715614 10.635159 -5.493725 0
M  V30 END ATOM
M  V30 BEGIN BOND
M  V30 1 1 2 1
M  V30 2 2 3 2
M  V30 3 1 4 3
M  V30 4 1 5 4
M  V30 5 2 6 1
M  V30 6 2 7 4
M  V30 7 1 7 6
M  V30 8 1 8 5
M  V30 9 1 9 2
M  V30 10 1 10 3
M  V30 11 1 11 6
M  V30 12 1 12 8
M  V30 13 1 13 8
M  V30 14 1 14 8
M  V30 END BOND
M  V30 END CTAB
M  END
>  <i_epik_Tot_Q>  (1) 
0

>  <i_epik_Tot_abs_Q>  (1) 
0

>  <i_i_glide_confnum>  (1) 
1

>  <i_i_glide_lignum>  (1) 
33

>  <i_i_glide_posenum>  (1) 
256

>  <i_i_glide_rotatable_bonds>  (1) 
1

>  <i_lp_mmshare_version>  (1) 
72125

>  <i_m_source_file_index>  (1) 
30

>  <i_f3d_flags>  (1) 
0

>  <num_sample>  (1) 
50

>  <b_lp_Chiralities_Consistent>  (1) 
1

>  <r_epik_Charging_Adjusted_Penalty>  (1) 
0

>  <r_epik_Ionization_Penalty>  (1) 
8.6638422661064201e-06

>  <r_epik_Ionization_Penalty_Charging>  (1) 
0

>  <r_epik_Ionization_Penalty_Neutral>  (1) 
8.6638422661064201e-06

>  <r_epik_State_Penalty>  (1) 
-0

>  <r_glide_ring_energy>  (1) 
0

>  <r_i_docking_score>  (1) 
-4.4099132958321636

>  <r_i_glide_ecoul>  (1) 
-1.7592135729351916

>  <r_i_glide_eff_state_penalty>  (1) 
-0

>  <r_i_glide_einternal>  (1) 
0.074175129731127498

>  <r_i_glide_emodel>  (1) 
-24.903830397894225

>  <r_i_glide_emodel_strain>  (1) 
0

>  <r_i_glide_energy>  (1) 
-19.463169857027438

>  <r_i_glide_erotb>  (1) 
0

>  <r_i_glide_esite>  (1) 
0

>  <r_i_glide_evdw>  (1) 
-17.703956284092246

>  <r_i_glide_gscore>  (1) 
-4.4099132958321636

>  <r_i_glide_gscore_strain>  (1) 
0

>  <r_i_glide_hbond>  (1) 
0

>  <r_i_glide_ligand_efficiency>  (1) 
-0.55123916197902045

>  <r_i_glide_ligand_efficiency_ln>  (1) 
-1.4320496869788135

>  <r_i_glide_ligand_efficiency_sa>  (1) 
-1.1024783239580411

>  <r_i_glide_lipo>  (1) 
-0.56130413902661636

>  <r_i_glide_metal>  (1) 
-0

>  <r_i_glide_rewards>  (1) 
-2.699529306660656

>  <r_lp_Energy>  (1) 
14.393509

>  <r_lp_tautomer_probability>  (1) 
1

>  <s_epik_cmdline>  (1) 
J2VwaWtfcHl0aG9uJywgJy1waHQnLCAnMS4wJywgJy1waCcsICc3LjQnLCAnLXRuJywgJzgnLCAnLW1hJywgJzUwMCcsICctaW1hZScsICc8aW5maWxlLm1hZT4nLCAnLW9tYWUnLCAnPG91dGZpbGUubWFlPic=

>  <s_epik_input>  (1) 
bjFbY0hdbltjSF1bY0hdYzFPW0NIM10=

>  <s_glide_docking_method>  (1) 
confgen

>  <s_i_glide_gridfile>  (1) 
gpcr_drd2_6luq_protein_autoprepared_prepared

>  <s_lp_Force_Field>  (1) 
S-OPLS

>  <s_lp_Variant>  (1) 
Pocket2Mol_29-1

>  <s_m_source_file>  (1) 
generated_generic_title2_ligand_Pocket2Mol_2026-06-23_prepared.sdf

>  <GenAI_Model>  (1) 
Pocket2Mol

>  <Protein>  (1) 
generic_title2

$$$$
Pocket2Mol_20
     RDKit          3D

  0  0  0  0  0  0  0  0  0  0999 V3000
M  V30 BEGIN CTAB
M  V30 COUNTS 12 12 0 0 1
M  V30 BEGIN ATOM
M  V30 1 N 12.359378 7.345585 -2.589942 0
M  V30 2 C 11.775410 6.709403 -3.625200 0
M  V30 3 C 11.375410 7.379667 -4.785025 0
M  V30 4 C 11.606869 8.754619 -4.835133 0
M  V30 5 N 11.241502 9.489289 -5.954156 0
M  V30 6 N 12.184235 9.420830 -3.820417 0
M  V30 7 C 12.521864 8.665806 -2.761959 0
M  V30 8 H 11.627242 5.645575 -3.521665 0
M  V30 9 H 10.908882 6.853794 -5.605380 0
M  V30 10 H 10.788359 9.055749 -6.745746 0
M  V30 11 H 11.388526 10.485991 -5.998102 0
M  V30 12 H 12.980452 9.190227 -1.938927 0
M  V30 END ATOM
M  V30 BEGIN BOND
M  V30 1 1 2 1
M  V30 2 2 3 2
M  V30 3 1 4 3
M  V30 4 1 5 4
M  V30 5 2 6 4
M  V30 6 2 7 1
M  V30 7 1 7 6
M  V30 8 1 8 2
M  V30 9 1 9 3
M  V30 10 1 10 5
M  V30 11 1 11 5
M  V30 12 1 12 7
M  V30 END BOND
M  V30 END CTAB
M  END
>  <i_epik_Tot_Q>  (1) 
0

>  <i_epik_Tot_abs_Q>  (1) 
0

>  <i_i_glide_confnum>  (1) 
1

>  <i_i_glide_lignum>  (1) 
24

>  <i_i_glide_posenum>  (1) 
104

>  <i_i_glide_rotatable_bonds>  (1) 
0

>  <i_lp_mmshare_version>  (1) 
72125

>  <i_m_source_file_index>  (1) 
21

>  <i_f3d_flags>  (1) 
0

>  <num_sample>  (1) 
50

>  <b_lp_Chiralities_Consistent>  (1) 
1

>  <r_epik_Charging_Adjusted_Penalty>  (1) 
0.011441366301234922

>  <r_epik_Ionization_Penalty>  (1) 
0.011523414685131987

>  <r_epik_Ionization_Penalty_Charging>  (1) 
0

>  <r_epik_Ionization_Penalty_Neutral>  (1) 
0.011523414685131987

>  <r_epik_State_Penalty>  (1) 
0.011441366301234922

>  <r_glide_ring_energy>  (1) 
0

>  <r_i_docking_score>  (1) 
-4.4096040181340905

>  <r_i_glide_ecoul>  (1) 
-1.6049887424617737

>  <r_i_glide_eff_state_penalty>  (1) 
0.011441366301234922

>  <r_i_glide_einternal>  (1) 
0

>  <r_i_glide_emodel>  (1) 
-23.650378728709292

>  <r_i_glide_emodel_strain>  (1) 
0

>  <r_i_glide_energy>  (1) 
-18.101876588948599

>  <r_i_glide_erotb>  (1) 
0

>  <r_i_glide_esite>  (1) 
0

>  <r_i_glide_evdw>  (1) 
-16.496887846486825

>  <r_i_glide_gscore>  (1) 
-4.4210453844353257

>  <r_i_glide_gscore_strain>  (1) 
0

>  <r_i_glide_hbond>  (1) 
0

>  <r_i_glide_ligand_efficiency>  (1) 
-0.6299434311620129

>  <r_i_glide_ligand_efficiency_ln>  (1) 
-1.4968562498581808

>  <r_i_glide_ligand_efficiency_sa>  (1) 
-1.2050384328524466

>  <r_i_glide_lipo>  (1) 
-0.65545268074171881

>  <r_i_glide_metal>  (1) 
-0

>  <r_i_glide_rewards>  (1) 
-2.7000000000000002

>  <r_lp_Energy>  (1) 
9.3523319999999988

>  <r_lp_tautomer_probability>  (1) 
0.9999995832001739

>  <s_epik_cmdline>  (1) 
J2VwaWtfcHl0aG9uJywgJy1waHQnLCAnMS4wJywgJy1waCcsICc3LjQnLCAnLXRuJywgJzgnLCAnLW1hJywgJzUwMCcsICctaW1hZScsICc8aW5maWxlLm1hZT4nLCAnLW9tYWUnLCAnPG91dGZpbGUubWFlPic=

>  <s_epik_input>  (1) 
bjFbY0hdbltjSF1bY0hdYzFbTkgyXQ==

>  <s_glide_docking_method>  (1) 
confgen

>  <s_i_glide_gridfile>  (1) 
gpcr_drd2_6luq_protein_autoprepared_prepared

>  <s_lp_Force_Field>  (1) 
S-OPLS

>  <s_lp_Variant>  (1) 
Pocket2Mol_20-1

>  <s_m_source_file>  (1) 
generated_generic_title2_ligand_Pocket2Mol_2026-06-23_prepared.sdf

>  <GenAI_Model>  (1) 
Pocket2Mol

>  <Protein>  (1) 
generic_title2

$$$$
Pocket2Mol_20
     RDKit          3D

  0  0  0  0  0  0  0  0  0  0999 V3000
M  V30 BEGIN CTAB
M  V30 COUNTS 12 12 0 0 1
M  V30 BEGIN ATOM
M  V30 1 N 12.512751 8.427078 -7.848722 0
M  V30 2 C 11.263295 8.291179 -7.359959 0
M  V30 3 C 10.168376 8.028277 -8.182319 0
M  V30 4 C 10.414651 7.903751 -9.549234 0
M  V30 5 N 9.375646 7.646755 -10.426814 0
M  V30 6 N 11.649306 8.025506 -10.071251 0
M  V30 7 C 12.615602 8.292218 -9.179706 0
M  V30 8 H 11.142089 8.397567 -6.291632 0
M  V30 9 H 9.170603 7.924438 -7.777782 0
M  V30 10 H 8.401573 7.590227 -10.096996 0
M  V30 11 H 9.526615 7.590818 -11.420852 0
M  V30 12 H 13.613049 8.382703 -9.583163 0
M  V30 END ATOM
M  V30 BEGIN BOND
M  V30 1 1 2 1
M  V30 2 2 3 2
M  V30 3 1 4 3
M  V30 4 1 5 4
M  V30 5 2 6 4
M  V30 6 2 7 1
M  V30 7 1 7 6
M  V30 8 1 8 2
M  V30 9 1 9 3
M  V30 10 1 10 5
M  V30 11 1 11 5
M  V30 12 1 12 7
M  V30 END BOND
M  V30 END CTAB
M  END
>  <i_epik_Tot_Q>  (1) 
0

>  <i_epik_Tot_abs_Q>  (1) 
0

>  <i_i_glide_confnum>  (1) 
1

>  <i_i_glide_lignum>  (1) 
24

>  <i_i_glide_posenum>  (1) 
177

>  <i_i_glide_rotatable_bonds>  (1) 
0

>  <i_lp_mmshare_version>  (1) 
72125

>  <i_m_source_file_index>  (1) 
21

>  <i_f3d_flags>  (1) 
0

>  <num_sample>  (1) 
50

>  <b_lp_Chiralities_Consistent>  (1) 
1

>  <r_epik_Charging_Adjusted_Penalty>  (1) 
0.011441366301234922

>  <r_epik_Ionization_Penalty>  (1) 
0.011523414685131987

>  <r_epik_Ionization_Penalty_Charging>  (1) 
0

>  <r_epik_Ionization_Penalty_Neutral>  (1) 
0.011523414685131987

>  <r_epik_State_Penalty>  (1) 
0.011441366301234922

>  <r_glide_ring_energy>  (1) 
0

>  <r_i_docking_score>  (1) 
-4.402588494999196

>  <r_i_glide_ecoul>  (1) 
-5.5807326207535759

>  <r_i_glide_eff_state_penalty>  (1) 
0.011441366301234922

>  <r_i_glide_einternal>  (1) 
0

>  <r_i_glide_emodel>  (1) 
-23.736000506082412

>  <r_i_glide_emodel_strain>  (1) 
0

>  <r_i_glide_energy>  (1) 
-18.196302990961527

>  <r_i_glide_erotb>  (1) 
0

>  <r_i_glide_esite>  (1) 
-0.10000000000000001

>  <r_i_glide_evdw>  (1) 
-12.61557037020795

>  <r_i_glide_gscore>  (1) 
-4.4140298613004312

>  <r_i_glide_gscore_strain>  (1) 
0

>  <r_i_glide_hbond>  (1) 
-0.16

>  <r_i_glide_ligand_efficiency>  (1) 
-0.62894121357131372

>  <r_i_glide_ligand_efficiency_ln>  (1) 
-1.4944748048106649

>  <r_i_glide_ligand_efficiency_sa>  (1) 
-1.203121259571275

>  <r_i_glide_lipo>  (1) 
-0.21604568914194663

>  <r_i_glide_metal>  (1) 
-0

>  <r_i_glide_rewards>  (1) 
-2.4700957605350502

>  <r_lp_Energy>  (1) 
9.3523319999999988

>  <r_lp_tautomer_probability>  (1) 
0.9999995832001739

>  <s_epik_cmdline>  (1) 
J2VwaWtfcHl0aG9uJywgJy1waHQnLCAnMS4wJywgJy1waCcsICc3LjQnLCAnLXRuJywgJzgnLCAnLW1hJywgJzUwMCcsICctaW1hZScsICc8aW5maWxlLm1hZT4nLCAnLW9tYWUnLCAnPG91dGZpbGUubWFlPic=

>  <s_epik_input>  (1) 
bjFbY0hdbltjSF1bY0hdYzFbTkgyXQ==

>  <s_glide_docking_method>  (1) 
confgen

>  <s_i_glide_gridfile>  (1) 
gpcr_drd2_6luq_protein_autoprepared_prepared

>  <s_lp_Force_Field>  (1) 
S-OPLS

>  <s_lp_Variant>  (1) 
Pocket2Mol_20-1

>  <s_m_source_file>  (1) 
generated_generic_title2_ligand_Pocket2Mol_2026-06-23_prepared.sdf

>  <GenAI_Model>  (1) 
Pocket2Mol

>  <Protein>  (1) 
generic_title2

$$$$
Pocket2Mol_16
     RDKit          3D

  0  0  0  0  0  0  0  0  0  0999 V3000
M  V30 BEGIN CTAB
M  V30 COUNTS 12 12 0 0 1
M  V30 BEGIN ATOM
M  V30 1 N 9.521790 7.951825 -8.152168 0
M  V30 2 C 9.509210 8.183556 -6.790036 0
M  V30 3 C 10.551212 8.713389 -6.115425 0
M  V30 4 C 11.778586 9.077008 -6.859457 0
M  V30 5 O 12.747149 9.590227 -6.302064 0
M  V30 6 C 10.660168 8.256524 -8.874256 0
M  V30 7 C 11.768946 8.790227 -8.321706 0
M  V30 8 H 8.583953 7.904716 -6.306228 0
M  V30 9 H 10.514029 8.884820 -5.052301 0
M  V30 10 H 8.690384 7.590227 -8.622170 0
M  V30 11 H 10.586384 8.032575 -9.928697 0
M  V30 12 H 12.643926 9.021946 -8.911630 0
M  V30 END ATOM
M  V30 BEGIN BOND
M  V30 1 1 2 1
M  V30 2 2 3 2
M  V30 3 1 4 3
M  V30 4 2 5 4
M  V30 5 1 6 1
M  V30 6 1 7 4
M  V30 7 2 7 6
M  V30 8 1 8 2
M  V30 9 1 9 3
M  V30 10 1 10 1
M  V30 11 1 11 6
M  V30 12 1 12 7
M  V30 END BOND
M  V30 END CTAB
M  END
>  <i_epik_Tot_Q>  (1) 
0

>  <i_epik_Tot_abs_Q>  (1) 
0

>  <i_i_glide_confnum>  (1) 
1

>  <i_i_glide_lignum>  (1) 
19

>  <i_i_glide_posenum>  (1) 
257

>  <i_i_glide_rotatable_bonds>  (1) 
0

>  <i_lp_mmshare_version>  (1) 
72125

>  <i_m_source_file_index>  (1) 
17

>  <i_f3d_flags>  (1) 
0

>  <num_sample>  (1) 
50

>  <b_lp_Chiralities_Consistent>  (1) 
1

>  <r_epik_Charging_Adjusted_Penalty>  (1) 
0.00011828912318149299

>  <r_epik_Ionization_Penalty>  (1) 
0.00011828912318149299

>  <r_epik_Ionization_Penalty_Charging>  (1) 
0.00011828912318149299

>  <r_epik_Ionization_Penalty_Neutral>  (1) 
0

>  <r_epik_State_Penalty>  (1) 
-0

>  <r_glide_ring_energy>  (1) 
0

>  <r_i_docking_score>  (1) 
-4.4002666514757962

>  <r_i_glide_ecoul>  (1) 
-3.5568749802090727

>  <r_i_glide_eff_state_penalty>  (1) 
-0

>  <r_i_glide_einternal>  (1) 
0

>  <r_i_glide_emodel>  (1) 
-22.824515872580243

>  <r_i_glide_emodel_strain>  (1) 
0

>  <r_i_glide_energy>  (1) 
-17.360340279642269

>  <r_i_glide_erotb>  (1) 
0

>  <r_i_glide_esite>  (1) 
-0.10000000000000001

>  <r_i_glide_evdw>  (1) 
-13.803465299433196

>  <r_i_glide_gscore>  (1) 
-4.4002666514757962

>  <r_i_glide_gscore_strain>  (1) 
0

>  <r_i_glide_hbond>  (1) 
-0.15978306473457987

>  <r_i_glide_ligand_efficiency>  (1) 
-0.62860952163939943

>  <r_i_glide_ligand_efficiency_ln>  (1) 
-1.4936866465146135

>  <r_i_glide_ligand_efficiency_sa>  (1) 
-1.2024867557316421

>  <r_i_glide_lipo>  (1) 
-0.66677907473819586

>  <r_i_glide_metal>  (1) 
-0

>  <r_i_glide_rewards>  (1) 
-2.25

>  <r_lp_Energy>  (1) 
8.1847359999999991

>  <r_lp_tautomer_probability>  (1) 
1

>  <s_epik_cmdline>  (1) 
J2VwaWtfcHl0aG9uJywgJy1waHQnLCAnMS4wJywgJy1waCcsICc3LjQnLCAnLXRuJywgJzgnLCAnLW1hJywgJzUwMCcsICctaW1hZScsICc8aW5maWxlLm1hZT4nLCAnLW9tYWUnLCAnPG91dGZpbGUubWFlPic=

>  <s_epik_input>  (1) 
W2NIXTFbY0hdbltjSF1bY0hdYzFbT0hd

>  <s_glide_docking_method>  (1) 
confgen

>  <s_i_glide_gridfile>  (1) 
gpcr_drd2_6luq_protein_autoprepared_prepared

>  <s_lp_Force_Field>  (1) 
S-OPLS

>  <s_lp_Variant>  (1) 
Pocket2Mol_16-1

>  <s_m_source_file>  (1) 
generated_generic_title2_ligand_Pocket2Mol_2026-06-23_prepared.sdf

>  <GenAI_Model>  (1) 
Pocket2Mol

>  <Protein>  (1) 
generic_title2

$$$$
Pocket2Mol_45
     RDKit          3D

  0  0  0  0  0  0  0  0  0  0999 V3000
M  V30 BEGIN CTAB
M  V30 COUNTS 13 13 0 0 1
M  V30 BEGIN ATOM
M  V30 1 O 11.775408 7.780591 -4.410529 0
M  V30 2 C 11.838092 9.199747 -4.500481 0
M  V30 3 C 11.577640 9.508779 -5.969143 0
M  V30 4 C 10.983019 7.260172 -5.483421 0
M  V30 5 C 10.538311 8.462840 -6.316052 0
M  V30 6 H 11.050080 9.632225 -3.882008 0
M  V30 7 H 12.795736 9.586194 -4.150630 0
M  V30 8 H 11.235400 10.530385 -6.130684 0
M  V30 9 H 12.485157 9.353427 -6.555240 0
M  V30 10 H 11.604491 6.589364 -6.078572 0
M  V30 11 H 10.134658 6.685546 -5.111048 0
M  V30 12 H 10.477242 8.247837 -7.383991 0
M  V30 13 H 9.551509 8.789208 -5.985328 0
M  V30 END ATOM
M  V30 BEGIN BOND
M  V30 1 1 2 1
M  V30 2 1 3 2
M  V30 3 1 4 1
M  V30 4 1 5 3
M  V30 5 1 5 4
M  V30 6 1 6 2
M  V30 7 1 7 2
M  V30 8 1 8 3
M  V30 9 1 9 3
M  V30 10 1 10 4
M  V30 11 1 11 4
M  V30 12 1 12 5
M  V30 13 1 13 5
M  V30 END BOND
M  V30 END CTAB
M  END
>  <i_epik_Tot_Q>  (1) 
0

>  <i_epik_Tot_abs_Q>  (1) 
0

>  <i_i_glide_confnum>  (1) 
3

>  <i_i_glide_lignum>  (1) 
51

>  <i_i_glide_posenum>  (1) 
21

>  <i_i_glide_rotatable_bonds>  (1) 
0

>  <i_lp_mmshare_version>  (1) 
72125

>  <i_m_source_file_index>  (1) 
46

>  <i_f3d_flags>  (1) 
0

>  <num_sample>  (1) 
50

>  <b_lp_Chiralities_Consistent>  (1) 
1

>  <r_epik_Charging_Adjusted_Penalty>  (1) 
0

>  <r_epik_Ionization_Penalty>  (1) 
1.3889264151150229e-11

>  <r_epik_Ionization_Penalty_Charging>  (1) 
0

>  <r_epik_Ionization_Penalty_Neutral>  (1) 
1.3889264151150229e-11

>  <r_epik_State_Penalty>  (1) 
-0

>  <r_glide_ring_energy>  (1) 
0.22161987042107956

>  <r_i_docking_score>  (1) 
-4.3969462904236858

>  <r_i_glide_ecoul>  (1) 
-0.34502791775835384

>  <r_i_glide_eff_state_penalty>  (1) 
-0

>  <r_i_glide_einternal>  (1) 
0

>  <r_i_glide_emodel>  (1) 
-17.221057091947259

>  <r_i_glide_emodel_strain>  (1) 
0

>  <r_i_glide_energy>  (1) 
-13.420570421370908

>  <r_i_glide_erotb>  (1) 
0

>  <r_i_glide_esite>  (1) 
0

>  <r_i_glide_evdw>  (1) 
-13.075542503612553

>  <r_i_glide_gscore>  (1) 
-4.3969462904236858

>  <r_i_glide_gscore_strain>  (1) 
0

>  <r_i_glide_hbond>  (1) 
0

>  <r_i_glide_ligand_efficiency>  (1) 
-0.87938925808473711

>  <r_i_glide_ligand_efficiency_ln>  (1) 
-1.6850166349894817

>  <r_i_glide_ligand_efficiency_sa>  (1) 
-1.5037344790907667

>  <r_i_glide_lipo>  (1) 
-1.1994107620207337

>  <r_i_glide_metal>  (1) 
-0

>  <r_i_glide_rewards>  (1) 
-2.4920042155585715

>  <r_lp_Energy>  (1) 
3.9173999999999998

>  <r_lp_tautomer_probability>  (1) 
1

>  <s_epik_cmdline>  (1) 
J2VwaWtfcHl0aG9uJywgJy1waHQnLCAnMS4wJywgJy1waCcsICc3LjQnLCAnLXRuJywgJzgnLCAnLW1hJywgJzUwMCcsICctaW1hZScsICc8aW5maWxlLm1hZT4nLCAnLW9tYWUnLCAnPG91dGZpbGUubWFlPic=

>  <s_epik_input>  (1) 
TzFbQ0gyXVtDSDJdW0NIMl1bQ0gyXTE=

>  <s_glide_docking_method>  (1) 
confgen

>  <s_i_glide_gridfile>  (1) 
gpcr_drd2_6luq_protein_autoprepared_prepared

>  <s_lp_Force_Field>  (1) 
S-OPLS

>  <s_lp_Variant>  (1) 
Pocket2Mol_45-1

>  <s_m_source_file>  (1) 
generated_generic_title2_ligand_Pocket2Mol_2026-06-23_prepared.sdf

>  <GenAI_Model>  (1) 
Pocket2Mol

>  <Protein>  (1) 
generic_title2

$$$$
Pocket2Mol_19
     RDKit          3D

  0  0  0  0  0  0  0  0  0  0999 V3000
M  V30 BEGIN CTAB
M  V30 COUNTS 12 12 0 0 1
M  V30 BEGIN ATOM
M  V30 1 N 11.241448 8.582911 -6.561077 0
M  V30 2 C 12.172506 8.705677 -7.537593 0
M  V30 3 C 11.988854 8.232020 -8.851656 0
M  V30 4 C 10.081033 7.963182 -6.889654 0
M  V30 5 O 12.968579 8.390225 -9.792859 0
M  V30 6 C 10.782168 7.592777 -9.175603 0
M  V30 7 C 9.809653 7.454244 -8.174088 0
M  V30 8 H 13.095289 9.190228 -7.257983 0
M  V30 9 H 9.348157 7.871928 -6.101422 0
M  V30 10 H 13.598973 9.071208 -9.585026 0
M  V30 11 H 10.605786 7.215462 -10.172379 0
M  V30 12 H 8.867254 6.968687 -8.385030 0
M  V30 END ATOM
M  V30 BEGIN BOND
M  V30 1 2 2 1
M  V30 2 1 3 2
M  V30 3 1 4 1
M  V30 4 1 5 3
M  V30 5 2 6 3
M  V30 6 2 7 4
M  V30 7 1 7 6
M  V30 8 1 8 2
M  V30 9 1 9 4
M  V30 10 1 10 5
M  V30 11 1 11 6
M  V30 12 1 12 7
M  V30 END BOND
M  V30 END CTAB
M  END
>  <i_epik_Tot_Q>  (1) 
0

>  <i_epik_Tot_abs_Q>  (1) 
0

>  <i_i_glide_confnum>  (1) 
1

>  <i_i_glide_lignum>  (1) 
23

>  <i_i_glide_posenum>  (1) 
22

>  <i_i_glide_rotatable_bonds>  (1) 
1

>  <i_lp_mmshare_version>  (1) 
72125

>  <i_m_source_file_index>  (1) 
20

>  <i_f3d_flags>  (1) 
0

>  <num_sample>  (1) 
50

>  <b_lp_Chiralities_Consistent>  (1) 
1

>  <r_epik_Charging_Adjusted_Penalty>  (1) 
0.49104251329211085

>  <r_epik_Ionization_Penalty>  (1) 
0.049438115990627488

>  <r_epik_Ionization_Penalty_Charging>  (1) 
0

>  <r_epik_Ionization_Penalty_Neutral>  (1) 
0.049438115990627488

>  <r_epik_State_Penalty>  (1) 
0.49104251329211085

>  <r_glide_ring_energy>  (1) 
0

>  <r_i_docking_score>  (1) 
-4.3945594608604521

>  <r_i_glide_ecoul>  (1) 
-4.3709228554658495

>  <r_i_glide_eff_state_penalty>  (1) 
0.49104251329211085

>  <r_i_glide_einternal>  (1) 
0.42960789717100001

>  <r_i_glide_emodel>  (1) 
-25.315174752195471

>  <r_i_glide_emodel_strain>  (1) 
0.025130224366241016

>  <r_i_glide_energy>  (1) 
-19.167639457776357

>  <r_i_glide_erotb>  (1) 
0

>  <r_i_glide_esite>  (1) 
0

>  <r_i_glide_evdw>  (1) 
-14.796716602310507

>  <r_i_glide_gscore>  (1) 
-4.8856019741525634

>  <r_i_glide_gscore_strain>  (1) 
0

>  <r_i_glide_hbond>  (1) 
-0.32000000000000001

>  <r_i_glide_ligand_efficiency>  (1) 
-0.62779420869435032

>  <r_i_glide_ligand_efficiency_ln>  (1) 
-1.4917493197372933

>  <r_i_glide_ligand_efficiency_sa>  (1) 
-1.2009271181753396

>  <r_i_glide_lipo>  (1) 
-0.65346104905049385

>  <r_i_glide_metal>  (1) 
-0

>  <r_i_glide_rewards>  (1) 
-2.5166666666666666

>  <r_lp_Energy>  (1) 
10.560834

>  <r_lp_tautomer_probability>  (1) 
0.43658000000000002

>  <s_epik_cmdline>  (1) 
J2VwaWtfcHl0aG9uJywgJy1waHQnLCAnMS4wJywgJy1waCcsICc3LjQnLCAnLXRuJywgJzgnLCAnLW1hJywgJzUwMCcsICctaW1hZScsICc8aW5maWxlLm1hZT4nLCAnLW9tYWUnLCAnPG91dGZpbGUubWFlPic=

>  <s_epik_input>  (1) 
W2NIXTFbY0hdW2NIXW5bY0hdYzFbT0hd

>  <s_glide_docking_method>  (1) 
confgen

>  <s_i_glide_gridfile>  (1) 
gpcr_drd2_6luq_protein_autoprepared_prepared

>  <s_lp_Force_Field>  (1) 
S-OPLS

>  <s_lp_Variant>  (1) 
Pocket2Mol_19-2

>  <s_m_source_file>  (1) 
generated_generic_title2_ligand_Pocket2Mol_2026-06-23_prepared.sdf

>  <GenAI_Model>  (1) 
Pocket2Mol

>  <Protein>  (1) 
generic_title2

$$$$
Pocket2Mol_19
     RDKit          3D

  0  0  0  0  0  0  0  0  0  0999 V3000
M  V30 BEGIN CTAB
M  V30 COUNTS 12 12 0 0 1
M  V30 BEGIN ATOM
M  V30 1 N 9.375405 7.707449 -9.629273 0 CHG=1
M  V30 2 C 9.985640 7.381700 -10.781330 0
M  V30 3 C 11.376642 7.527779 -10.896845 0
M  V30 4 C 10.037528 8.182818 -8.554501 0
M  V30 5 O 12.003621 7.190227 -12.057086 0 CHG=-1
M  V30 6 C 12.116508 8.017963 -9.799040 0
M  V30 7 C 11.436472 8.351301 -8.609731 0
M  V30 8 H 9.348075 7.012657 -11.574542 0
M  V30 9 H 9.432272 8.412365 -7.687684 0
M  V30 10 H 8.324034 7.590236 -9.562620 0
M  V30 11 H 13.190886 8.135619 -9.868860 0
M  V30 12 H 11.981087 8.727880 -7.757320 0
M  V30 END ATOM
M  V30 BEGIN BOND
M  V30 1 1 2 1
M  V30 2 2 3 2
M  V30 3 2 4 1
M  V30 4 1 5 3
M  V30 5 1 6 3
M  V30 6 1 7 4
M  V30 7 2 7 6
M  V30 8 1 8 2
M  V30 9 1 9 4
M  V30 10 1 10 1
M  V30 11 1 11 6
M  V30 12 1 12 7
M  V30 END BOND
M  V30 END CTAB
M  END
>  <i_epik_Tot_Q>  (1) 
0

>  <i_epik_Tot_abs_Q>  (1) 
2

>  <i_i_glide_confnum>  (1) 
1

>  <i_i_glide_lignum>  (1) 
22

>  <i_i_glide_posenum>  (1) 
336

>  <i_i_glide_rotatable_bonds>  (1) 
0

>  <i_lp_mmshare_version>  (1) 
72125

>  <i_m_source_file_index>  (1) 
20

>  <i_f3d_flags>  (1) 
0

>  <num_sample>  (1) 
50

>  <b_lp_Chiralities_Consistent>  (1) 
1

>  <r_epik_Charging_Adjusted_Penalty>  (1) 
0.36510749842979956

>  <r_epik_Ionization_Penalty>  (1) 
0.025180683492302028

>  <r_epik_Ionization_Penalty_Charging>  (1) 
0.025180683492302028

>  <r_epik_Ionization_Penalty_Neutral>  (1) 
0

>  <r_epik_State_Penalty>  (1) 
0.33992681493749755

>  <r_glide_ring_energy>  (1) 
0

>  <r_i_docking_score>  (1) 
-4.3943231283487068

>  <r_i_glide_ecoul>  (1) 
-9.4526714933316711

>  <r_i_glide_eff_state_penalty>  (1) 
0.33992681493749755

>  <r_i_glide_einternal>  (1) 
0

>  <r_i_glide_emodel>  (1) 
-23.879155893893277

>  <r_i_glide_emodel_strain>  (1) 
1.1465047577985388e-08

>  <r_i_glide_energy>  (1) 
-14.985378990027662

>  <r_i_glide_erotb>  (1) 
0

>  <r_i_glide_esite>  (1) 
-0.10000000000000001

>  <r_i_glide_evdw>  (1) 
-5.5327074966959922

>  <r_i_glide_gscore>  (1) 
-4.734249943286204

>  <r_i_glide_gscore_strain>  (1) 
0

>  <r_i_glide_hbond>  (1) 
-0.14246033610059256

>  <r_i_glide_ligand_efficiency>  (1) 
-0.62776044690695809

>  <r_i_glide_ligand_efficiency_ln>  (1) 
-1.4916690957997705

>  <r_i_glide_ligand_efficiency_sa>  (1) 
-1.200862534199451

>  <r_i_glide_lipo>  (1) 
-0.54725350835106146

>  <r_i_glide_metal>  (1) 
-0

>  <r_i_glide_rewards>  (1) 
-2.25

>  <r_lp_Energy>  (1) 
9.275188

>  <r_lp_tautomer_probability>  (1) 
0.56342000000000003

>  <s_epik_cmdline>  (1) 
J2VwaWtfcHl0aG9uJywgJy1waHQnLCAnMS4wJywgJy1waCcsICc3LjQnLCAnLXRuJywgJzgnLCAnLW1hJywgJzUwMCcsICctaW1hZScsICc8aW5maWxlLm1hZT4nLCAnLW9tYWUnLCAnPG91dGZpbGUubWFlPic=

>  <s_epik_input>  (1) 
W2NIXTFbY0hdW2NIXW5bY0hdYzFbT0hd

>  <s_glide_docking_method>  (1) 
confgen

>  <s_i_glide_gridfile>  (1) 
gpcr_drd2_6luq_protein_autoprepared_prepared

>  <s_lp_Force_Field>  (1) 
S-OPLS

>  <s_lp_Variant>  (1) 
Pocket2Mol_19-1

>  <s_m_source_file>  (1) 
generated_generic_title2_ligand_Pocket2Mol_2026-06-23_prepared.sdf

>  <GenAI_Model>  (1) 
Pocket2Mol

>  <Protein>  (1) 
generic_title2

$$$$
Pocket2Mol_7
     RDKit          3D

  0  0  0  0  0  0  0  0  0  0999 V3000
M  V30 BEGIN CTAB
M  V30 COUNTS 13 13 0 0 1
M  V30 BEGIN ATOM
M  V30 1 N 10.647493 8.612952 -6.042138 0
M  V30 2 C 11.632495 8.790203 -6.970186 0
M  V30 3 C 11.368739 8.317023 -8.152317 0
M  V30 4 C 9.775482 7.990070 -6.785026 0
M  V30 5 C 12.294931 8.389752 -9.346922 0
M  V30 6 C 10.057036 7.670610 -8.303359 0
M  V30 7 H 12.543919 9.294932 -6.683633 0
M  V30 8 H 8.806970 7.657418 -6.401010 0
M  V30 9 H 12.443797 7.397233 -9.770710 0
M  V30 10 H 11.867337 9.032487 -10.116102 0
M  V30 11 H 13.269778 8.790127 -9.067084 0
M  V30 12 H 10.110347 6.600239 -8.502814 0
M  V30 13 H 9.375528 8.197573 -8.972433 0
M  V30 END ATOM
M  V30 BEGIN BOND
M  V30 1 1 2 1
M  V30 2 2 3 2
M  V30 3 2 4 1
M  V30 4 1 5 3
M  V30 5 1 6 3
M  V30 6 1 6 4
M  V30 7 1 7 2
M  V30 8 1 8 4
M  V30 9 1 9 5
M  V30 10 1 10 5
M  V30 11 1 11 5
M  V30 12 1 12 6
M  V30 13 1 13 6
M  V30 END BOND
M  V30 END CTAB
M  END
>  <i_epik_Tot_Q>  (1) 
0

>  <i_epik_Tot_abs_Q>  (1) 
0

>  <i_i_glide_confnum>  (1) 
1

>  <i_i_glide_lignum>  (1) 
8

>  <i_i_glide_posenum>  (1) 
342

>  <i_i_glide_rotatable_bonds>  (1) 
0

>  <i_lp_mmshare_version>  (1) 
72125

>  <i_m_source_file_index>  (1) 
8

>  <i_f3d_flags>  (1) 
0

>  <num_sample>  (1) 
50

>  <b_lp_Chiralities_Consistent>  (1) 
1

>  <r_epik_Charging_Adjusted_Penalty>  (1) 
0

>  <r_epik_Ionization_Penalty>  (1) 
0

>  <r_epik_Ionization_Penalty_Charging>  (1) 
0

>  <r_epik_Ionization_Penalty_Neutral>  (1) 
0

>  <r_epik_State_Penalty>  (1) 
-0

>  <r_glide_ring_energy>  (1) 
0

>  <r_i_docking_score>  (1) 
-4.38999722097802

>  <r_i_glide_ecoul>  (1) 
-1.2958521710201001

>  <r_i_glide_eff_state_penalty>  (1) 
-0

>  <r_i_glide_einternal>  (1) 
0

>  <r_i_glide_emodel>  (1) 
-21.836118645386463

>  <r_i_glide_emodel_strain>  (1) 
0

>  <r_i_glide_energy>  (1) 
-16.981976265242213

>  <r_i_glide_erotb>  (1) 
0

>  <r_i_glide_esite>  (1) 
-0.0067191704680186655

>  <r_i_glide_evdw>  (1) 
-15.686124094222114

>  <r_i_glide_gscore>  (1) 
-4.38999722097802

>  <r_i_glide_gscore_strain>  (1) 
0

>  <r_i_glide_hbond>  (1) 
0

>  <r_i_glide_ligand_efficiency>  (1) 
-0.73166620349633671

>  <r_i_glide_ligand_efficiency_ln>  (1) 
-1.5724840443334795

>  <r_i_glide_ligand_efficiency_sa>  (1) 
-1.3295257254525044

>  <r_i_glide_lipo>  (1) 
-0.72959402014588082

>  <r_i_glide_metal>  (1) 
-0

>  <r_i_glide_rewards>  (1) 
-2.6749999999999998

>  <r_lp_Energy>  (1) 
-3.9959819999999997

>  <r_lp_tautomer_probability>  (1) 
1

>  <s_epik_Chemistry_Notes>  (1) 
This compound has an imine and may undergo hydrolysis.

>  <s_epik_cmdline>  (1) 
J2VwaWtfcHl0aG9uJywgJy1waHQnLCAnMS4wJywgJy1waCcsICc3LjQnLCAnLXRuJywgJzgnLCAnLW1hJywgJzUwMCcsICctaW1hZScsICc8aW5maWxlLm1hZT4nLCAnLW9tYWUnLCAnPG91dGZpbGUubWFlPic=

>  <s_epik_input>  (1) 
W0NIMl0xW0NIXT1OW0NIXT1DMVtDSDNd

>  <s_glide_docking_method>  (1) 
confgen

>  <s_i_glide_gridfile>  (1) 
gpcr_drd2_6luq_protein_autoprepared_prepared

>  <s_lp_Force_Field>  (1) 
S-OPLS

>  <s_lp_Variant>  (1) 
Pocket2Mol_7-1

>  <s_m_source_file>  (1) 
generated_generic_title2_ligand_Pocket2Mol_2026-06-23_prepared.sdf

>  <GenAI_Model>  (1) 
Pocket2Mol

>  <Protein>  (1) 
generic_title2

$$$$
Pocket2Mol_18
     RDKit          3D

  0  0  0  0  0  0  0  0  0  0999 V3000
M  V30 BEGIN CTAB
M  V30 COUNTS 14 14 0 0 1
M  V30 BEGIN ATOM
M  V30 1 N 9.375410 4.384603 -12.796292 0 CHG=1
M  V30 2 C 9.404485 5.645805 -12.322385 0
M  V30 3 C 8.240813 6.216886 -11.775125 0
M  V30 4 C 7.055106 5.452296 -11.731682 0
M  V30 5 N 5.895640 5.990227 -11.185025 0
M  V30 6 C 7.064027 4.136113 -12.243688 0
M  V30 7 C 8.262692 3.619441 -12.778682 0
M  V30 8 H 10.354224 6.156750 -12.391802 0
M  V30 9 H 8.256345 7.225683 -11.389404 0
M  V30 10 H 5.140664 5.369361 -10.936098 0
M  V30 11 H 5.979094 6.818149 -10.589582 0
M  V30 12 H 6.169495 3.531687 -12.221167 0
M  V30 13 H 8.364305 2.623015 -13.185026 0
M  V30 14 H 10.240507 3.990227 -13.185025 0
M  V30 END ATOM
M  V30 BEGIN BOND
M  V30 1 1 2 1
M  V30 2 2 3 2
M  V30 3 1 4 3
M  V30 4 1 5 4
M  V30 5 2 6 4
M  V30 6 2 7 1
M  V30 7 1 7 6
M  V30 8 1 8 2
M  V30 9 1 9 3
M  V30 10 1 10 5
M  V30 11 1 11 5
M  V30 12 1 12 6
M  V30 13 1 13 7
M  V30 14 1 14 1
M  V30 END BOND
M  V30 END CTAB
M  END
>  <i_epik_Tot_Q>  (1) 
1

>  <i_epik_Tot_abs_Q>  (1) 
1

>  <i_i_glide_confnum>  (1) 
1

>  <i_i_glide_lignum>  (1) 
21

>  <i_i_glide_posenum>  (1) 
376

>  <i_i_glide_rotatable_bonds>  (1) 
0

>  <i_lp_mmshare_version>  (1) 
72125

>  <i_m_source_file_index>  (1) 
19

>  <i_f3d_flags>  (1) 
0

>  <num_sample>  (1) 
50

>  <b_lp_Chiralities_Consistent>  (1) 
1

>  <r_epik_Charging_Adjusted_Penalty>  (1) 
0.023410508937706027

>  <r_epik_Ionization_Penalty>  (1) 
0.011711918016166721

>  <r_epik_Ionization_Penalty_Charging>  (1) 
0.011705254468853022

>  <r_epik_Ionization_Penalty_Neutral>  (1) 
6.6635473136990569e-06

>  <r_epik_State_Penalty>  (1) 
0.011705254468853005

>  <r_glide_ring_energy>  (1) 
0

>  <r_i_docking_score>  (1) 
-4.3822161391134573

>  <r_i_glide_ecoul>  (1) 
-6.7500187954134176

>  <r_i_glide_eff_state_penalty>  (1) 
0.011705254468853005

>  <r_i_glide_einternal>  (1) 
0

>  <r_i_glide_emodel>  (1) 
-24.019466488133205

>  <r_i_glide_emodel_strain>  (1) 
0

>  <r_i_glide_energy>  (1) 
-15.784265740940109

>  <r_i_glide_erotb>  (1) 
0

>  <r_i_glide_esite>  (1) 
-0.087477922824718182

>  <r_i_glide_evdw>  (1) 
-9.0342469455266912

>  <r_i_glide_gscore>  (1) 
-4.3939213935823105

>  <r_i_glide_gscore_strain>  (1) 
0

>  <r_i_glide_hbond>  (1) 
-0.16

>  <r_i_glide_ligand_efficiency>  (1) 
-0.62603087701620819

>  <r_i_glide_ligand_efficiency_ln>  (1) 
-1.4875593339188347

>  <r_i_glide_ligand_efficiency_sa>  (1) 
-1.1975539860226512

>  <r_i_glide_lipo>  (1) 
-0.4322283041692444

>  <r_i_glide_metal>  (1) 
-0

>  <r_i_glide_rewards>  (1) 
-2.25

>  <r_lp_Energy>  (1) 
13.062742999999999

>  <r_lp_tautomer_probability>  (1) 
0.99999999993680011

>  <s_epik_cmdline>  (1) 
J2VwaWtfcHl0aG9uJywgJy1waHQnLCAnMS4wJywgJy1waCcsICc3LjQnLCAnLXRuJywgJzgnLCAnLW1hJywgJzUwMCcsICctaW1hZScsICc8aW5maWxlLm1hZT4nLCAnLW9tYWUnLCAnPG91dGZpbGUubWFlPic=

>  <s_epik_input>  (1) 
W2NIXTFbY0hdbltjSF1bY0hdYzFbTkgyXQ==

>  <s_glide_docking_method>  (1) 
confgen

>  <s_i_glide_gridfile>  (1) 
gpcr_drd2_6luq_protein_autoprepared_prepared

>  <s_lp_Force_Field>  (1) 
S-OPLS

>  <s_lp_Variant>  (1) 
Pocket2Mol_18-1

>  <s_m_source_file>  (1) 
generated_generic_title2_ligand_Pocket2Mol_2026-06-23_prepared.sdf

>  <GenAI_Model>  (1) 
Pocket2Mol

>  <Protein>  (1) 
generic_title2

$$$$
Pocket2Mol_47
     RDKit          3D

  0  0  0  0  0  0  0  0  0  0999 V3000
M  V30 BEGIN CTAB
M  V30 COUNTS 11 11 0 0 1
M  V30 BEGIN ATOM
M  V30 1 C 10.975451 7.368353 -5.532393 0
M  V30 2 O 11.775410 7.787787 -4.355167 0
M  V30 3 C 10.575408 8.621177 -6.449576 0
M  V30 4 C 11.251210 9.590134 -5.585028 0
M  V30 5 C 11.842697 9.117512 -4.536872 0
M  V30 6 H 10.080094 6.851639 -5.185025 0
M  V30 7 H 11.549216 6.643149 -6.110930 0
M  V30 8 H 9.499035 8.790207 -6.499711 0
M  V30 9 H 11.015374 8.587257 -7.446533 0
M  V30 10 H 11.239358 10.641225 -5.833775 0
M  V30 11 H 12.392666 9.652605 -3.776616 0
M  V30 END ATOM
M  V30 BEGIN BOND
M  V30 1 1 2 1
M  V30 2 1 3 1
M  V30 3 1 4 3
M  V30 4 1 5 2
M  V30 5 2 5 4
M  V30 6 1 6 1
M  V30 7 1 7 1
M  V30 8 1 8 3
M  V30 9 1 9 3
M  V30 10 1 10 4
M  V30 11 1 11 5
M  V30 END BOND
M  V30 END CTAB
M  END
>  <i_epik_Tot_Q>  (1) 
0

>  <i_epik_Tot_abs_Q>  (1) 
0

>  <i_i_glide_confnum>  (1) 
1

>  <i_i_glide_lignum>  (1) 
53

>  <i_i_glide_posenum>  (1) 
271

>  <i_i_glide_rotatable_bonds>  (1) 
0

>  <i_lp_mmshare_version>  (1) 
72125

>  <i_m_source_file_index>  (1) 
48

>  <i_f3d_flags>  (1) 
0

>  <num_sample>  (1) 
50

>  <b_lp_Chiralities_Consistent>  (1) 
1

>  <r_epik_Charging_Adjusted_Penalty>  (1) 
0

>  <r_epik_Ionization_Penalty>  (1) 
0

>  <r_epik_Ionization_Penalty_Charging>  (1) 
0

>  <r_epik_Ionization_Penalty_Neutral>  (1) 
0

>  <r_epik_State_Penalty>  (1) 
-0

>  <r_glide_ring_energy>  (1) 
0

>  <r_i_docking_score>  (1) 
-4.3789153965265299

>  <r_i_glide_ecoul>  (1) 
-0.51069619532926702

>  <r_i_glide_eff_state_penalty>  (1) 
-0

>  <r_i_glide_einternal>  (1) 
0

>  <r_i_glide_emodel>  (1) 
-16.800089119445435

>  <r_i_glide_emodel_strain>  (1) 
0

>  <r_i_glide_energy>  (1) 
-12.979151783543452

>  <r_i_glide_erotb>  (1) 
0

>  <r_i_glide_esite>  (1) 
0

>  <r_i_glide_evdw>  (1) 
-12.468455588214185

>  <r_i_glide_gscore>  (1) 
-4.3789153965265299

>  <r_i_glide_gscore_strain>  (1) 
0

>  <r_i_glide_hbond>  (1) 
0

>  <r_i_glide_ligand_efficiency>  (1) 
-0.87578307930530597

>  <r_i_glide_ligand_efficiency_ln>  (1) 
-1.6781067584175051

>  <r_i_glide_ligand_efficiency_sa>  (1) 
-1.4975680001185234

>  <r_i_glide_lipo>  (1) 
-1.1910463552594499

>  <r_i_glide_metal>  (1) 
-0

>  <r_i_glide_rewards>  (1) 
-2.4878418325569811

>  <r_lp_Energy>  (1) 
-3.1771669999999999

>  <r_lp_tautomer_probability>  (1) 
1

>  <s_epik_cmdline>  (1) 
J2VwaWtfcHl0aG9uJywgJy1waHQnLCAnMS4wJywgJy1waCcsICc3LjQnLCAnLXRuJywgJzgnLCAnLW1hJywgJzUwMCcsICctaW1hZScsICc8aW5maWxlLm1hZT4nLCAnLW9tYWUnLCAnPG91dGZpbGUubWFlPic=

>  <s_epik_input>  (1) 
W0NIMl0xT1tDSF09W0NIXVtDSDJdMQ==

>  <s_glide_docking_method>  (1) 
confgen

>  <s_i_glide_gridfile>  (1) 
gpcr_drd2_6luq_protein_autoprepared_prepared

>  <s_lp_Force_Field>  (1) 
S-OPLS

>  <s_lp_Variant>  (1) 
Pocket2Mol_47-1

>  <s_m_source_file>  (1) 
generated_generic_title2_ligand_Pocket2Mol_2026-06-23_prepared.sdf

>  <GenAI_Model>  (1) 
Pocket2Mol

>  <Protein>  (1) 
generic_title2

$$$$
Pocket2Mol_19
     RDKit          3D

  0  0  0  0  0  0  0  0  0  0999 V3000
M  V30 BEGIN CTAB
M  V30 COUNTS 12 12 0 0 1
M  V30 BEGIN ATOM
M  V30 1 N 12.200694 9.190227 -3.985025 0
M  V30 2 C 11.501726 9.298237 -5.141338 0
M  V30 3 C 10.873978 8.205822 -5.773648 0
M  V30 4 C 12.287960 7.958529 -3.426102 0
M  V30 5 O 10.175326 8.384130 -6.934674 0
M  V30 6 C 10.975410 6.933911 -5.185034 0
M  V30 7 C 11.698334 6.806933 -3.986301 0
M  V30 8 H 11.438447 10.287563 -5.571043 0
M  V30 9 H 12.847406 7.890521 -2.504776 0
M  V30 10 H 9.645656 7.645352 -7.202845 0
M  V30 11 H 10.506943 6.073651 -5.640622 0
M  V30 12 H 11.796382 5.846798 -3.501990 0
M  V30 END ATOM
M  V30 BEGIN BOND
M  V30 1 2 2 1
M  V30 2 1 3 2
M  V30 3 1 4 1
M  V30 4 1 5 3
M  V30 5 2 6 3
M  V30 6 2 7 4
M  V30 7 1 7 6
M  V30 8 1 8 2
M  V30 9 1 9 4
M  V30 10 1 10 5
M  V30 11 1 11 6
M  V30 12 1 12 7
M  V30 END BOND
M  V30 END CTAB
M  END
>  <i_epik_Tot_Q>  (1) 
0

>  <i_epik_Tot_abs_Q>  (1) 
0

>  <i_i_glide_confnum>  (1) 
1

>  <i_i_glide_lignum>  (1) 
23

>  <i_i_glide_posenum>  (1) 
345

>  <i_i_glide_rotatable_bonds>  (1) 
1

>  <i_lp_mmshare_version>  (1) 
72125

>  <i_m_source_file_index>  (1) 
20

>  <i_f3d_flags>  (1) 
0

>  <num_sample>  (1) 
50

>  <b_lp_Chiralities_Consistent>  (1) 
1

>  <r_epik_Charging_Adjusted_Penalty>  (1) 
0.49104251329211085

>  <r_epik_Ionization_Penalty>  (1) 
0.049438115990627488

>  <r_epik_Ionization_Penalty_Charging>  (1) 
0

>  <r_epik_Ionization_Penalty_Neutral>  (1) 
0.049438115990627488

>  <r_epik_State_Penalty>  (1) 
0.49104251329211085

>  <r_glide_ring_energy>  (1) 
0

>  <r_i_docking_score>  (1) 
-4.3705225873001643

>  <r_i_glide_ecoul>  (1) 
-1.6070456875631129

>  <r_i_glide_eff_state_penalty>  (1) 
0.49104251329211085

>  <r_i_glide_einternal>  (1) 
0.10547867264962432

>  <r_i_glide_emodel>  (1) 
-24.073464143256921

>  <r_i_glide_emodel_strain>  (1) 
0

>  <r_i_glide_energy>  (1) 
-17.770159985257735

>  <r_i_glide_erotb>  (1) 
0

>  <r_i_glide_esite>  (1) 
0

>  <r_i_glide_evdw>  (1) 
-16.163114297694623

>  <r_i_glide_gscore>  (1) 
-4.8615651005922755

>  <r_i_glide_gscore_strain>  (1) 
0

>  <r_i_glide_hbond>  (1) 
0

>  <r_i_glide_ligand_efficiency>  (1) 
-0.62436036961430919

>  <r_i_glide_ligand_efficiency_ln>  (1) 
-1.4835899148864713

>  <r_i_glide_ligand_efficiency_sa>  (1) 
-1.1943584203225066

>  <r_i_glide_lipo>  (1) 
-1.3978957012552808

>  <r_i_glide_metal>  (1) 
-0

>  <r_i_glide_rewards>  (1) 
-2.4144568313177963

>  <r_lp_Energy>  (1) 
10.560834

>  <r_lp_tautomer_probability>  (1) 
0.43658000000000002

>  <s_epik_cmdline>  (1) 
J2VwaWtfcHl0aG9uJywgJy1waHQnLCAnMS4wJywgJy1waCcsICc3LjQnLCAnLXRuJywgJzgnLCAnLW1hJywgJzUwMCcsICctaW1hZScsICc8aW5maWxlLm1hZT4nLCAnLW9tYWUnLCAnPG91dGZpbGUubWFlPic=

>  <s_epik_input>  (1) 
W2NIXTFbY0hdW2NIXW5bY0hdYzFbT0hd

>  <s_glide_docking_method>  (1) 
confgen

>  <s_i_glide_gridfile>  (1) 
gpcr_drd2_6luq_protein_autoprepared_prepared

>  <s_lp_Force_Field>  (1) 
S-OPLS

>  <s_lp_Variant>  (1) 
Pocket2Mol_19-2

>  <s_m_source_file>  (1) 
generated_generic_title2_ligand_Pocket2Mol_2026-06-23_prepared.sdf

>  <GenAI_Model>  (1) 
Pocket2Mol

>  <Protein>  (1) 
generic_title2

$$$$
Pocket2Mol_14
     RDKit          3D

  0  0  0  0  0  0  0  0  0  0999 V3000
M  V30 BEGIN CTAB
M  V30 COUNTS 17 17 0 0 1
M  V30 BEGIN ATOM
M  V30 1 C 12.088420 8.629757 -9.184763 0
M  V30 2 O 11.458867 7.590100 -9.916079 0
M  V30 3 C 12.057171 8.391497 -7.666231 0
M  V30 4 O 10.800874 8.790227 -7.144631 0
M  V30 5 C 10.059120 7.473271 -9.695520 0
M  V30 6 C 9.775381 7.800803 -7.144411 0
M  V30 7 C 9.775541 6.820709 -8.334376 0
M  V30 8 H 13.127496 8.658494 -9.513694 0
M  V30 9 H 11.658791 9.599078 -9.441448 0
M  V30 10 H 12.316846 7.367010 -7.398309 0
M  V30 11 H 12.805327 9.033293 -7.200649 0
M  V30 12 H 9.547369 8.431398 -9.801781 0
M  V30 13 H 9.668198 6.825452 -10.480290 0
M  V30 14 H 8.822044 8.329755 -7.105666 0
M  V30 15 H 9.842257 7.231758 -6.216257 0
M  V30 16 H 8.794630 6.344349 -8.370197 0
M  V30 17 H 10.487358 6.012008 -8.165669 0
M  V30 END ATOM
M  V30 BEGIN BOND
M  V30 1 1 2 1
M  V30 2 1 3 1
M  V30 3 1 4 3
M  V30 4 1 5 2
M  V30 5 1 6 4
M  V30 6 1 7 5
M  V30 7 1 7 6
M  V30 8 1 8 1
M  V30 9 1 9 1
M  V30 10 1 10 3
M  V30 11 1 11 3
M  V30 12 1 12 5
M  V30 13 1 13 5
M  V30 14 1 14 6
M  V30 15 1 15 6
M  V30 16 1 16 7
M  V30 17 1 17 7
M  V30 END BOND
M  V30 END CTAB
M  END
>  <i_epik_Tot_Q>  (1) 
0

>  <i_epik_Tot_abs_Q>  (1) 
0

>  <i_i_glide_confnum>  (1) 
6

>  <i_i_glide_lignum>  (1) 
17

>  <i_i_glide_posenum>  (1) 
218

>  <i_i_glide_rotatable_bonds>  (1) 
0

>  <i_lp_mmshare_version>  (1) 
72125

>  <i_m_source_file_index>  (1) 
15

>  <i_f3d_flags>  (1) 
0

>  <num_sample>  (1) 
50

>  <b_lp_Chiralities_Consistent>  (1) 
1

>  <r_epik_Charging_Adjusted_Penalty>  (1) 
0

>  <r_epik_Ionization_Penalty>  (1) 
3.933197540425548e-12

>  <r_epik_Ionization_Penalty_Charging>  (1) 
0

>  <r_epik_Ionization_Penalty_Neutral>  (1) 
3.933197540425548e-12

>  <r_epik_State_Penalty>  (1) 
-0

>  <r_glide_ring_energy>  (1) 
0.00047957236178236941

>  <r_i_docking_score>  (1) 
-4.3688403082931373

>  <r_i_glide_ecoul>  (1) 
-1.6187441020468245

>  <r_i_glide_eff_state_penalty>  (1) 
-0

>  <r_i_glide_einternal>  (1) 
0

>  <r_i_glide_emodel>  (1) 
-21.811207337785248

>  <r_i_glide_emodel_strain>  (1) 
0

>  <r_i_glide_energy>  (1) 
-17.027483002558021

>  <r_i_glide_erotb>  (1) 
0

>  <r_i_glide_esite>  (1) 
0

>  <r_i_glide_evdw>  (1) 
-15.408738900511196

>  <r_i_glide_gscore>  (1) 
-4.3688403082931373

>  <r_i_glide_gscore_strain>  (1) 
0

>  <r_i_glide_hbond>  (1) 
0

>  <r_i_glide_ligand_efficiency>  (1) 
-0.62412004404187671

>  <r_i_glide_ligand_efficiency_ln>  (1) 
-1.4830188591101889

>  <r_i_glide_ligand_efficiency_sa>  (1) 
-1.193898694040983

>  <r_i_glide_lipo>  (1) 
-0.60336233490496405

>  <r_i_glide_metal>  (1) 
-0

>  <r_i_glide_rewards>  (1) 
-2.7522294130555895

>  <r_lp_Energy>  (1) 
9.641

>  <r_lp_tautomer_probability>  (1) 
1

>  <s_epik_cmdline>  (1) 
J2VwaWtfcHl0aG9uJywgJy1waHQnLCAnMS4wJywgJy1waCcsICc3LjQnLCAnLXRuJywgJzgnLCAnLW1hJywgJzUwMCcsICctaW1hZScsICc8aW5maWxlLm1hZT4nLCAnLW9tYWUnLCAnPG91dGZpbGUubWFlPic=

>  <s_epik_input>  (1) 
W0NIMl0xT1tDSDJdW0NIMl1bQ0gyXU9bQ0gyXTE=

>  <s_glide_docking_method>  (1) 
confgen

>  <s_i_glide_gridfile>  (1) 
gpcr_drd2_6luq_protein_autoprepared_prepared

>  <s_lp_Force_Field>  (1) 
S-OPLS

>  <s_lp_Variant>  (1) 
Pocket2Mol_14-1

>  <s_m_source_file>  (1) 
generated_generic_title2_ligand_Pocket2Mol_2026-06-23_prepared.sdf

>  <GenAI_Model>  (1) 
Pocket2Mol

>  <Protein>  (1) 
generic_title2

$$$$
Pocket2Mol_18
     RDKit          3D

  0  0  0  0  0  0  0  0  0  0999 V3000
M  V30 BEGIN CTAB
M  V30 COUNTS 14 14 0 0 1
M  V30 BEGIN ATOM
M  V30 1 N 12.154790 8.591496 -8.931552 0 CHG=1
M  V30 2 C 12.168845 8.686815 -7.584995 0
M  V30 3 C 11.107421 8.145860 -6.829800 0
M  V30 4 C 10.040300 7.512253 -7.503008 0
M  V30 5 N 8.975410 6.975482 -6.785026 0
M  V30 6 C 10.066451 7.431793 -8.912494 0
M  V30 7 C 11.155423 7.990227 -9.611472 0
M  V30 8 H 13.022143 9.190202 -7.153729 0
M  V30 9 H 11.109804 8.218412 -5.752135 0
M  V30 10 H 8.094915 6.790224 -7.268685 0
M  V30 11 H 8.875520 7.190231 -5.803494 0
M  V30 12 H 9.262048 6.949357 -9.449151 0
M  V30 13 H 11.254171 7.974859 -10.687069 0
M  V30 14 H 12.934139 8.993984 -9.459104 0
M  V30 END ATOM
M  V30 BEGIN BOND
M  V30 1 1 2 1
M  V30 2 2 3 2
M  V30 3 1 4 3
M  V30 4 1 5 4
M  V30 5 2 6 4
M  V30 6 2 7 1
M  V30 7 1 7 6
M  V30 8 1 8 2
M  V30 9 1 9 3
M  V30 10 1 10 5
M  V30 11 1 11 5
M  V30 12 1 12 6
M  V30 13 1 13 7
M  V30 14 1 14 1
M  V30 END BOND
M  V30 END CTAB
M  END
>  <i_epik_Tot_Q>  (1) 
1

>  <i_epik_Tot_abs_Q>  (1) 
1

>  <i_i_glide_confnum>  (1) 
1

>  <i_i_glide_lignum>  (1) 
21

>  <i_i_glide_posenum>  (1) 
83

>  <i_i_glide_rotatable_bonds>  (1) 
0

>  <i_lp_mmshare_version>  (1) 
72125

>  <i_m_source_file_index>  (1) 
19

>  <i_f3d_flags>  (1) 
0

>  <num_sample>  (1) 
50

>  <b_lp_Chiralities_Consistent>  (1) 
1

>  <r_epik_Charging_Adjusted_Penalty>  (1) 
0.023410508937706027

>  <r_epik_Ionization_Penalty>  (1) 
0.011711918016166721

>  <r_epik_Ionization_Penalty_Charging>  (1) 
0.011705254468853022

>  <r_epik_Ionization_Penalty_Neutral>  (1) 
6.6635473136990569e-06

>  <r_epik_State_Penalty>  (1) 
0.011705254468853005

>  <r_glide_ring_energy>  (1) 
0

>  <r_i_docking_score>  (1) 
-4.3687408812017416

>  <r_i_glide_ecoul>  (1) 
-4.1093362825543709

>  <r_i_glide_eff_state_penalty>  (1) 
0.011705254468853005

>  <r_i_glide_einternal>  (1) 
0

>  <r_i_glide_emodel>  (1) 
-24.341681737157636

>  <r_i_glide_emodel_strain>  (1) 
0

>  <r_i_glide_energy>  (1) 
-16.131736665722702

>  <r_i_glide_erotb>  (1) 
0

>  <r_i_glide_esite>  (1) 
-0.084846686229337609

>  <r_i_glide_evdw>  (1) 
-12.022400383168332

>  <r_i_glide_gscore>  (1) 
-4.3804461356705948

>  <r_i_glide_gscore_strain>  (1) 
0

>  <r_i_glide_hbond>  (1) 
-0.14162070139628066

>  <r_i_glide_ligand_efficiency>  (1) 
-0.62410584017167736

>  <r_i_glide_ligand_efficiency_ln>  (1) 
-1.4829851082195082

>  <r_i_glide_ligand_efficiency_sa>  (1) 
-1.1938715230147625

>  <r_i_glide_lipo>  (1) 
-0.68645828650340457

>  <r_i_glide_metal>  (1) 
-0

>  <r_i_glide_rewards>  (1) 
-2.25

>  <r_lp_Energy>  (1) 
13.062742999999999

>  <r_lp_tautomer_probability>  (1) 
0.99999999993680011

>  <s_epik_cmdline>  (1) 
J2VwaWtfcHl0aG9uJywgJy1waHQnLCAnMS4wJywgJy1waCcsICc3LjQnLCAnLXRuJywgJzgnLCAnLW1hJywgJzUwMCcsICctaW1hZScsICc8aW5maWxlLm1hZT4nLCAnLW9tYWUnLCAnPG91dGZpbGUubWFlPic=

>  <s_epik_input>  (1) 
W2NIXTFbY0hdbltjSF1bY0hdYzFbTkgyXQ==

>  <s_glide_docking_method>  (1) 
confgen

>  <s_i_glide_gridfile>  (1) 
gpcr_drd2_6luq_protein_autoprepared_prepared

>  <s_lp_Force_Field>  (1) 
S-OPLS

>  <s_lp_Variant>  (1) 
Pocket2Mol_18-1

>  <s_m_source_file>  (1) 
generated_generic_title2_ligand_Pocket2Mol_2026-06-23_prepared.sdf

>  <GenAI_Model>  (1) 
Pocket2Mol

>  <Protein>  (1) 
generic_title2

$$$$
Pocket2Mol_45
     RDKit          3D

  0  0  0  0  0  0  0  0  0  0999 V3000
M  V30 BEGIN CTAB
M  V30 COUNTS 13 13 0 0 1
M  V30 BEGIN ATOM
M  V30 1 O 11.774453 8.135692 -4.381817 0
M  V30 2 C 12.278263 9.009884 -3.375263 0
M  V30 3 C 12.251773 8.211251 -2.076801 0
M  V30 4 C 11.735786 6.791172 -3.904314 0
M  V30 5 C 12.486257 6.804794 -2.579048 0
M  V30 6 H 13.302993 9.281657 -3.634396 0
M  V30 7 H 11.693374 9.927568 -3.311643 0
M  V30 8 H 13.001146 8.545760 -1.358656 0
M  V30 9 H 11.273921 8.283128 -1.600052 0
M  V30 10 H 10.700945 6.479096 -3.754371 0
M  V30 11 H 12.175408 6.103853 -4.626673 0
M  V30 12 H 12.157139 6.029329 -1.885631 0
M  V30 13 H 13.543881 6.661833 -2.785025 0
M  V30 END ATOM
M  V30 BEGIN BOND
M  V30 1 1 2 1
M  V30 2 1 3 2
M  V30 3 1 4 1
M  V30 4 1 5 3
M  V30 5 1 5 4
M  V30 6 1 6 2
M  V30 7 1 7 2
M  V30 8 1 8 3
M  V30 9 1 9 3
M  V30 10 1 10 4
M  V30 11 1 11 4
M  V30 12 1 12 5
M  V30 13 1 13 5
M  V30 END BOND
M  V30 END CTAB
M  END
>  <i_epik_Tot_Q>  (1) 
0

>  <i_epik_Tot_abs_Q>  (1) 
0

>  <i_i_glide_confnum>  (1) 
3

>  <i_i_glide_lignum>  (1) 
51

>  <i_i_glide_posenum>  (1) 
379

>  <i_i_glide_rotatable_bonds>  (1) 
0

>  <i_lp_mmshare_version>  (1) 
72125

>  <i_m_source_file_index>  (1) 
46

>  <i_f3d_flags>  (1) 
0

>  <num_sample>  (1) 
50

>  <b_lp_Chiralities_Consistent>  (1) 
1

>  <r_epik_Charging_Adjusted_Penalty>  (1) 
0

>  <r_epik_Ionization_Penalty>  (1) 
1.3889264151150229e-11

>  <r_epik_Ionization_Penalty_Charging>  (1) 
0

>  <r_epik_Ionization_Penalty_Neutral>  (1) 
1.3889264151150229e-11

>  <r_epik_State_Penalty>  (1) 
-0

>  <r_glide_ring_energy>  (1) 
0.22161987042107956

>  <r_i_docking_score>  (1) 
-4.3664187819242963

>  <r_i_glide_ecoul>  (1) 
-0.71552474154782386

>  <r_i_glide_eff_state_penalty>  (1) 
-0

>  <r_i_glide_einternal>  (1) 
0

>  <r_i_glide_emodel>  (1) 
-17.251007885551516

>  <r_i_glide_emodel_strain>  (1) 
0

>  <r_i_glide_energy>  (1) 
-13.476907570749061

>  <r_i_glide_erotb>  (1) 
0

>  <r_i_glide_esite>  (1) 
0

>  <r_i_glide_evdw>  (1) 
-12.761382829201237

>  <r_i_glide_gscore>  (1) 
-4.3664187819242963

>  <r_i_glide_gscore_strain>  (1) 
0

>  <r_i_glide_hbond>  (1) 
0

>  <r_i_glide_ligand_efficiency>  (1) 
-0.87328375638485922

>  <r_i_glide_ligand_efficiency_ln>  (1) 
-1.673317752117456

>  <r_i_glide_ligand_efficiency_sa>  (1) 
-1.4932942180415818

>  <r_i_glide_lipo>  (1) 
-1.2160518131000899

>  <r_i_glide_metal>  (1) 
-0

>  <r_i_glide_rewards>  (1) 
-2.4049691161319711

>  <r_lp_Energy>  (1) 
3.9173999999999998

>  <r_lp_tautomer_probability>  (1) 
1

>  <s_epik_cmdline>  (1) 
J2VwaWtfcHl0aG9uJywgJy1waHQnLCAnMS4wJywgJy1waCcsICc3LjQnLCAnLXRuJywgJzgnLCAnLW1hJywgJzUwMCcsICctaW1hZScsICc8aW5maWxlLm1hZT4nLCAnLW9tYWUnLCAnPG91dGZpbGUubWFlPic=

>  <s_epik_input>  (1) 
TzFbQ0gyXVtDSDJdW0NIMl1bQ0gyXTE=

>  <s_glide_docking_method>  (1) 
confgen

>  <s_i_glide_gridfile>  (1) 
gpcr_drd2_6luq_protein_autoprepared_prepared

>  <s_lp_Force_Field>  (1) 
S-OPLS

>  <s_lp_Variant>  (1) 
Pocket2Mol_45-1

>  <s_m_source_file>  (1) 
generated_generic_title2_ligand_Pocket2Mol_2026-06-23_prepared.sdf

>  <GenAI_Model>  (1) 
Pocket2Mol

>  <Protein>  (1) 
generic_title2

$$$$
Pocket2Mol_1
     RDKit          3D

  0  0  0  0  0  0  0  0  0  0999 V3000
M  V30 BEGIN CTAB
M  V30 COUNTS 10 10 0 0 1
M  V30 BEGIN ATOM
M  V30 1 N 11.375429 7.190408 -4.647621 0
M  V30 2 C 11.123097 8.273239 -5.453883 0
M  V30 3 C 11.769188 9.346164 -4.896673 0
M  V30 4 C 12.434338 8.885474 -3.711238 0
M  V30 5 C 12.175407 7.546286 -3.585169 0
M  V30 6 H 11.021727 6.256870 -4.813038 0
M  V30 7 H 10.509853 8.182678 -6.339826 0
M  V30 8 H 11.764558 10.352210 -5.292842 0
M  V30 9 H 13.034433 9.472506 -3.031021 0
M  V30 10 H 12.478671 6.820522 -2.843799 0
M  V30 END ATOM
M  V30 BEGIN BOND
M  V30 1 1 2 1
M  V30 2 2 3 2
M  V30 3 1 4 3
M  V30 4 1 5 1
M  V30 5 2 5 4
M  V30 6 1 6 1
M  V30 7 1 7 2
M  V30 8 1 8 3
M  V30 9 1 9 4
M  V30 10 1 10 5
M  V30 END BOND
M  V30 END CTAB
M  END
>  <i_epik_Tot_Q>  (1) 
0

>  <i_epik_Tot_abs_Q>  (1) 
0

>  <i_i_glide_confnum>  (1) 
1

>  <i_i_glide_lignum>  (1) 
2

>  <i_i_glide_posenum>  (1) 
210

>  <i_i_glide_rotatable_bonds>  (1) 
0

>  <i_lp_mmshare_version>  (1) 
72125

>  <i_m_source_file_index>  (1) 
2

>  <i_f3d_flags>  (1) 
0

>  <num_sample>  (1) 
50

>  <b_lp_Chiralities_Consistent>  (1) 
1

>  <r_epik_Charging_Adjusted_Penalty>  (1) 
0

>  <r_epik_Ionization_Penalty>  (1) 
4.7655302421719939e-09

>  <r_epik_Ionization_Penalty_Charging>  (1) 
0

>  <r_epik_Ionization_Penalty_Neutral>  (1) 
4.7655302421719939e-09

>  <r_epik_State_Penalty>  (1) 
-0

>  <r_glide_ring_energy>  (1) 
0

>  <r_i_docking_score>  (1) 
-4.3648602633103062

>  <r_i_glide_ecoul>  (1) 
-1.7198592809744446

>  <r_i_glide_eff_state_penalty>  (1) 
-0

>  <r_i_glide_einternal>  (1) 
0

>  <r_i_glide_emodel>  (1) 
-17.538880354384872

>  <r_i_glide_emodel_strain>  (1) 
0

>  <r_i_glide_energy>  (1) 
-12.950725321247983

>  <r_i_glide_erotb>  (1) 
0

>  <r_i_glide_esite>  (1) 
0

>  <r_i_glide_evdw>  (1) 
-11.230866040273538

>  <r_i_glide_gscore>  (1) 
-4.3648602633103062

>  <r_i_glide_gscore_strain>  (1) 
0

>  <r_i_glide_hbond>  (1) 
0

>  <r_i_glide_ligand_efficiency>  (1) 
-0.87297205266206124

>  <r_i_glide_ligand_efficiency_ln>  (1) 
-1.6727204899229569

>  <r_i_glide_ligand_efficiency_sa>  (1) 
-1.4927612121731075

>  <r_i_glide_lipo>  (1) 
-1.2953380691504626

>  <r_i_glide_metal>  (1) 
-0

>  <r_i_glide_rewards>  (1) 
-2.25

>  <r_lp_Energy>  (1) 
2.9132020000000001

>  <r_lp_tautomer_probability>  (1) 
1

>  <s_epik_cmdline>  (1) 
J2VwaWtfcHl0aG9uJywgJy1waHQnLCAnMS4wJywgJy1waCcsICc3LjQnLCAnLXRuJywgJzgnLCAnLW1hJywgJzUwMCcsICctaW1hZScsICc8aW5maWxlLm1hZT4nLCAnLW9tYWUnLCAnPG91dGZpbGUubWFlPic=

>  <s_epik_input>  (1) 
W25IXTFbY0hdW2NIXVtjSF1bY0hdMQ==

>  <s_glide_docking_method>  (1) 
confgen

>  <s_i_glide_gridfile>  (1) 
gpcr_drd2_6luq_protein_autoprepared_prepared

>  <s_lp_Force_Field>  (1) 
S-OPLS

>  <s_lp_Variant>  (1) 
Pocket2Mol_1-1

>  <s_m_source_file>  (1) 
generated_generic_title2_ligand_Pocket2Mol_2026-06-23_prepared.sdf

>  <GenAI_Model>  (1) 
Pocket2Mol

>  <Protein>  (1) 
generic_title2

$$$$
Pocket2Mol_5
     RDKit          3D

  0  0  0  0  0  0  0  0  0  0999 V3000
M  V30 BEGIN CTAB
M  V30 COUNTS 14 14 0 0 1
M  V30 BEGIN ATOM
M  V30 1 C 11.055707 6.455197 -6.897956 0
M  V30 2 O 10.997651 7.423468 -7.937570 0
M  V30 3 C 10.574028 7.088903 -5.585025 0
M  V30 4 O 11.375410 8.221669 -5.275802 0
M  V30 5 C 11.794556 8.561071 -7.638881 0
M  V30 6 C 11.319167 9.190225 -6.314667 0
M  V30 7 H 10.424035 5.608641 -7.168133 0
M  V30 8 H 12.071934 6.074622 -6.785025 0
M  V30 9 H 9.527194 7.384113 -5.667711 0
M  V30 10 H 10.639850 6.368911 -4.768968 0
M  V30 11 H 12.846254 8.276428 -7.585025 0
M  V30 12 H 11.704287 9.279305 -8.453885 0
M  V30 13 H 11.951341 10.037656 -6.048437 0
M  V30 14 H 10.300616 9.568243 -6.407648 0
M  V30 END ATOM
M  V30 BEGIN BOND
M  V30 1 1 2 1
M  V30 2 1 3 1
M  V30 3 1 4 3
M  V30 4 1 5 2
M  V30 5 1 6 4
M  V30 6 1 6 5
M  V30 7 1 7 1
M  V30 8 1 8 1
M  V30 9 1 9 3
M  V30 10 1 10 3
M  V30 11 1 11 5
M  V30 12 1 12 5
M  V30 13 1 13 6
M  V30 14 1 14 6
M  V30 END BOND
M  V30 END CTAB
M  END
>  <i_epik_Tot_Q>  (1) 
0

>  <i_epik_Tot_abs_Q>  (1) 
0

>  <i_i_glide_confnum>  (1) 
1

>  <i_i_glide_lignum>  (1) 
6

>  <i_i_glide_posenum>  (1) 
382

>  <i_i_glide_rotatable_bonds>  (1) 
0

>  <i_lp_mmshare_version>  (1) 
72125

>  <i_m_source_file_index>  (1) 
6

>  <i_f3d_flags>  (1) 
0

>  <num_sample>  (1) 
50

>  <b_lp_Chiralities_Consistent>  (1) 
1

>  <r_epik_Charging_Adjusted_Penalty>  (1) 
0

>  <r_epik_Ionization_Penalty>  (1) 
8.3894707547109138e-13

>  <r_epik_Ionization_Penalty_Charging>  (1) 
0

>  <r_epik_Ionization_Penalty_Neutral>  (1) 
8.3894707547109138e-13

>  <r_epik_State_Penalty>  (1) 
-0

>  <r_glide_ring_energy>  (1) 
0

>  <r_i_docking_score>  (1) 
-4.363959691243692

>  <r_i_glide_ecoul>  (1) 
-0.41431951909760212

>  <r_i_glide_eff_state_penalty>  (1) 
-0

>  <r_i_glide_einternal>  (1) 
0

>  <r_i_glide_emodel>  (1) 
-17.735206828146314

>  <r_i_glide_emodel_strain>  (1) 
0

>  <r_i_glide_energy>  (1) 
-13.743599186986192

>  <r_i_glide_erotb>  (1) 
0

>  <r_i_glide_esite>  (1) 
0

>  <r_i_glide_evdw>  (1) 
-13.32927966788859

>  <r_i_glide_gscore>  (1) 
-4.363959691243692

>  <r_i_glide_gscore_strain>  (1) 
0

>  <r_i_glide_hbond>  (1) 
0

>  <r_i_glide_ligand_efficiency>  (1) 
-0.72732661520728203

>  <r_i_glide_ligand_efficiency_ln>  (1) 
-1.56315747805106

>  <r_i_glide_ligand_efficiency_sa>  (1) 
-1.32164017020805

>  <r_i_glide_lipo>  (1) 
-1.0607695947789846

>  <r_i_glide_metal>  (1) 
-0

>  <r_i_glide_rewards>  (1) 
-2.5745781852056373

>  <r_lp_Energy>  (1) 
4.9648199999999996

>  <r_lp_tautomer_probability>  (1) 
1

>  <s_epik_cmdline>  (1) 
J2VwaWtfcHl0aG9uJywgJy1waHQnLCAnMS4wJywgJy1waCcsICc3LjQnLCAnLXRuJywgJzgnLCAnLW1hJywgJzUwMCcsICctaW1hZScsICc8aW5maWxlLm1hZT4nLCAnLW9tYWUnLCAnPG91dGZpbGUubWFlPic=

>  <s_epik_input>  (1) 
W0NIMl0xT1tDSDJdW0NIMl1PW0NIMl0x

>  <s_glide_docking_method>  (1) 
confgen

>  <s_i_glide_gridfile>  (1) 
gpcr_drd2_6luq_protein_autoprepared_prepared

>  <s_lp_Force_Field>  (1) 
S-OPLS

>  <s_lp_Variant>  (1) 
Pocket2Mol_5-1

>  <s_m_source_file>  (1) 
generated_generic_title2_ligand_Pocket2Mol_2026-06-23_prepared.sdf

>  <GenAI_Model>  (1) 
Pocket2Mol

>  <Protein>  (1) 
generic_title2

$$$$
Pocket2Mol_47
     RDKit          3D

  0  0  0  0  0  0  0  0  0  0999 V3000
M  V30 BEGIN CTAB
M  V30 COUNTS 11 11 0 0 1
M  V30 BEGIN ATOM
M  V30 1 C 12.555696 8.570981 -2.138991 0
M  V30 2 O 12.325958 7.116444 -1.985025 0
M  V30 3 C 12.182765 9.079504 -3.613391 0
M  V30 4 C 11.775410 7.749251 -4.065047 0
M  V30 5 C 11.865662 6.790224 -3.201868 0
M  V30 6 H 13.600583 8.790304 -1.918172 0
M  V30 7 H 11.958355 9.103027 -1.397028 0
M  V30 8 H 13.038572 9.457390 -4.172672 0
M  V30 9 H 11.355132 9.789108 -3.629233 0
M  V30 10 H 11.417009 7.603860 -5.074328 0
M  V30 11 H 11.617094 5.747176 -3.329038 0
M  V30 END ATOM
M  V30 BEGIN BOND
M  V30 1 1 2 1
M  V30 2 1 3 1
M  V30 3 1 4 3
M  V30 4 1 5 2
M  V30 5 2 5 4
M  V30 6 1 6 1
M  V30 7 1 7 1
M  V30 8 1 8 3
M  V30 9 1 9 3
M  V30 10 1 10 4
M  V30 11 1 11 5
M  V30 END BOND
M  V30 END CTAB
M  END
>  <i_epik_Tot_Q>  (1) 
0

>  <i_epik_Tot_abs_Q>  (1) 
0

>  <i_i_glide_confnum>  (1) 
1

>  <i_i_glide_lignum>  (1) 
53

>  <i_i_glide_posenum>  (1) 
173

>  <i_i_glide_rotatable_bonds>  (1) 
0

>  <i_lp_mmshare_version>  (1) 
72125

>  <i_m_source_file_index>  (1) 
48

>  <i_f3d_flags>  (1) 
0

>  <num_sample>  (1) 
50

>  <b_lp_Chiralities_Consistent>  (1) 
1

>  <r_epik_Charging_Adjusted_Penalty>  (1) 
0

>  <r_epik_Ionization_Penalty>  (1) 
0

>  <r_epik_Ionization_Penalty_Charging>  (1) 
0

>  <r_epik_Ionization_Penalty_Neutral>  (1) 
0

>  <r_epik_State_Penalty>  (1) 
-0

>  <r_glide_ring_energy>  (1) 
0

>  <r_i_docking_score>  (1) 
-4.3596474036711905

>  <r_i_glide_ecoul>  (1) 
-0.73353647056731652

>  <r_i_glide_eff_state_penalty>  (1) 
-0

>  <r_i_glide_einternal>  (1) 
0

>  <r_i_glide_emodel>  (1) 
-16.70890850374893

>  <r_i_glide_emodel_strain>  (1) 
0

>  <r_i_glide_energy>  (1) 
-12.904783959742232

>  <r_i_glide_erotb>  (1) 
0

>  <r_i_glide_esite>  (1) 
0

>  <r_i_glide_evdw>  (1) 
-12.171247489174917

>  <r_i_glide_gscore>  (1) 
-4.3596474036711905

>  <r_i_glide_gscore_strain>  (1) 
0

>  <r_i_glide_hbond>  (1) 
0

>  <r_i_glide_ligand_efficiency>  (1) 
-0.87192948073423815

>  <r_i_glide_ligand_efficiency_ln>  (1) 
-1.6707227954714903

>  <r_i_glide_ligand_efficiency_sa>  (1) 
-1.4909784392538497

>  <r_i_glide_lipo>  (1) 
-1.1062149268500991

>  <r_i_glide_metal>  (1) 
-0

>  <r_i_glide_rewards>  (1) 
-2.5348396317772481

>  <r_lp_Energy>  (1) 
-3.1771669999999999

>  <r_lp_tautomer_probability>  (1) 
1

>  <s_epik_cmdline>  (1) 
J2VwaWtfcHl0aG9uJywgJy1waHQnLCAnMS4wJywgJy1waCcsICc3LjQnLCAnLXRuJywgJzgnLCAnLW1hJywgJzUwMCcsICctaW1hZScsICc8aW5maWxlLm1hZT4nLCAnLW9tYWUnLCAnPG91dGZpbGUubWFlPic=

>  <s_epik_input>  (1) 
W0NIMl0xT1tDSF09W0NIXVtDSDJdMQ==

>  <s_glide_docking_method>  (1) 
confgen

>  <s_i_glide_gridfile>  (1) 
gpcr_drd2_6luq_protein_autoprepared_prepared

>  <s_lp_Force_Field>  (1) 
S-OPLS

>  <s_lp_Variant>  (1) 
Pocket2Mol_47-1

>  <s_m_source_file>  (1) 
generated_generic_title2_ligand_Pocket2Mol_2026-06-23_prepared.sdf

>  <GenAI_Model>  (1) 
Pocket2Mol

>  <Protein>  (1) 
generic_title2

$$$$
Pocket2Mol_20
     RDKit          3D

  0  0  0  0  0  0  0  0  0  0999 V3000
M  V30 BEGIN CTAB
M  V30 COUNTS 12 12 0 0 1
M  V30 BEGIN ATOM
M  V30 1 N 12.175410 8.516695 -3.874138 0
M  V30 2 C 11.775412 7.232268 -3.985031 0
M  V30 3 C 10.975395 6.790229 -5.040042 0
M  V30 4 C 10.590861 7.738257 -5.989978 0
M  V30 5 N 9.782689 7.375215 -7.059329 0
M  V30 6 N 10.975385 9.026727 -5.913739 0
M  V30 7 C 11.747109 9.326456 -4.856596 0
M  V30 8 H 12.104565 6.549797 -3.215093 0
M  V30 9 H 10.662071 5.760906 -5.111938 0
M  V30 10 H 9.400070 6.444667 -7.137134 0
M  V30 11 H 9.439134 8.062628 -7.714308 0
M  V30 12 H 12.061521 10.356869 -4.785032 0
M  V30 END ATOM
M  V30 BEGIN BOND
M  V30 1 1 2 1
M  V30 2 2 3 2
M  V30 3 1 4 3
M  V30 4 1 5 4
M  V30 5 2 6 4
M  V30 6 2 7 1
M  V30 7 1 7 6
M  V30 8 1 8 2
M  V30 9 1 9 3
M  V30 10 1 10 5
M  V30 11 1 11 5
M  V30 12 1 12 7
M  V30 END BOND
M  V30 END CTAB
M  END
>  <i_epik_Tot_Q>  (1) 
0

>  <i_epik_Tot_abs_Q>  (1) 
0

>  <i_i_glide_confnum>  (1) 
1

>  <i_i_glide_lignum>  (1) 
24

>  <i_i_glide_posenum>  (1) 
171

>  <i_i_glide_rotatable_bonds>  (1) 
0

>  <i_lp_mmshare_version>  (1) 
72125

>  <i_m_source_file_index>  (1) 
21

>  <i_f3d_flags>  (1) 
0

>  <num_sample>  (1) 
50

>  <b_lp_Chiralities_Consistent>  (1) 
1

>  <r_epik_Charging_Adjusted_Penalty>  (1) 
0.011441366301234922

>  <r_epik_Ionization_Penalty>  (1) 
0.011523414685131987

>  <r_epik_Ionization_Penalty_Charging>  (1) 
0

>  <r_epik_Ionization_Penalty_Neutral>  (1) 
0.011523414685131987

>  <r_epik_State_Penalty>  (1) 
0.011441366301234922

>  <r_glide_ring_energy>  (1) 
0

>  <r_i_docking_score>  (1) 
-4.3545214150524858

>  <r_i_glide_ecoul>  (1) 
-1.2063956057893381

>  <r_i_glide_eff_state_penalty>  (1) 
0.011441366301234922

>  <r_i_glide_einternal>  (1) 
0

>  <r_i_glide_emodel>  (1) 
-22.914506768678145

>  <r_i_glide_emodel_strain>  (1) 
0

>  <r_i_glide_energy>  (1) 
-17.435134419382361

>  <r_i_glide_erotb>  (1) 
0

>  <r_i_glide_esite>  (1) 
-0.03150129601154069

>  <r_i_glide_evdw>  (1) 
-16.228738813593022

>  <r_i_glide_gscore>  (1) 
-4.365962781353721

>  <r_i_glide_gscore_strain>  (1) 
0

>  <r_i_glide_hbond>  (1) 
0

>  <r_i_glide_ligand_efficiency>  (1) 
-0.62207448786464081

>  <r_i_glide_ligand_efficiency_ln>  (1) 
-1.4781582583056316

>  <r_i_glide_ligand_efficiency_sa>  (1) 
-1.1899856858434357

>  <r_i_glide_lipo>  (1) 
-0.64206520379412879

>  <r_i_glide_metal>  (1) 
-0

>  <r_i_glide_rewards>  (1) 
-2.7000000000000002

>  <r_lp_Energy>  (1) 
9.3523319999999988

>  <r_lp_tautomer_probability>  (1) 
0.9999995832001739

>  <s_epik_cmdline>  (1) 
J2VwaWtfcHl0aG9uJywgJy1waHQnLCAnMS4wJywgJy1waCcsICc3LjQnLCAnLXRuJywgJzgnLCAnLW1hJywgJzUwMCcsICctaW1hZScsICc8aW5maWxlLm1hZT4nLCAnLW9tYWUnLCAnPG91dGZpbGUubWFlPic=

>  <s_epik_input>  (1) 
bjFbY0hdbltjSF1bY0hdYzFbTkgyXQ==

>  <s_glide_docking_method>  (1) 
confgen

>  <s_i_glide_gridfile>  (1) 
gpcr_drd2_6luq_protein_autoprepared_prepared

>  <s_lp_Force_Field>  (1) 
S-OPLS

>  <s_lp_Variant>  (1) 
Pocket2Mol_20-1

>  <s_m_source_file>  (1) 
generated_generic_title2_ligand_Pocket2Mol_2026-06-23_prepared.sdf

>  <GenAI_Model>  (1) 
Pocket2Mol

>  <Protein>  (1) 
generic_title2

$$$$
Pocket2Mol_11
     RDKit          3D

  0  0  0  0  0  0  0  0  0  0999 V3000
M  V30 BEGIN CTAB
M  V30 COUNTS 14 14 0 0 1
M  V30 BEGIN ATOM
M  V30 1 O 11.454915 7.611270 -8.656404 0
M  V30 2 C 11.892796 8.416107 -7.674562 0
M  V30 3 C 10.090632 7.284593 -8.185805 0
M  V30 4 C 11.073747 8.644939 -6.696212 0
M  V30 5 C 11.375778 9.520572 -5.497518 0
M  V30 6 C 9.765527 7.990603 -6.785100 0
M  V30 7 H 12.896810 8.790227 -7.810300 0
M  V30 8 H 9.993744 6.201793 -8.097712 0
M  V30 9 H 9.375312 7.604992 -8.943505 0
M  V30 10 H 10.627821 10.308303 -5.402438 0
M  V30 11 H 11.364810 8.925402 -4.584431 0
M  V30 12 H 12.356112 9.990227 -5.588938 0
M  V30 13 H 9.602874 7.278931 -5.975515 0
M  V30 14 H 8.945385 8.707087 -6.846870 0
M  V30 END ATOM
M  V30 BEGIN BOND
M  V30 1 1 2 1
M  V30 2 1 3 1
M  V30 3 2 4 2
M  V30 4 1 5 4
M  V30 5 1 6 3
M  V30 6 1 6 4
M  V30 7 1 7 2
M  V30 8 1 8 3
M  V30 9 1 9 3
M  V30 10 1 10 5
M  V30 11 1 11 5
M  V30 12 1 12 5
M  V30 13 1 13 6
M  V30 14 1 14 6
M  V30 END BOND
M  V30 END CTAB
M  END
>  <i_epik_Tot_Q>  (1) 
0

>  <i_epik_Tot_abs_Q>  (1) 
0

>  <i_i_glide_confnum>  (1) 
1

>  <i_i_glide_lignum>  (1) 
14

>  <i_i_glide_posenum>  (1) 
275

>  <i_i_glide_rotatable_bonds>  (1) 
0

>  <i_lp_mmshare_version>  (1) 
72125

>  <i_m_source_file_index>  (1) 
12

>  <i_f3d_flags>  (1) 
0

>  <num_sample>  (1) 
50

>  <b_lp_Chiralities_Consistent>  (1) 
1

>  <r_epik_Charging_Adjusted_Penalty>  (1) 
0

>  <r_epik_Ionization_Penalty>  (1) 
0

>  <r_epik_Ionization_Penalty_Charging>  (1) 
0

>  <r_epik_Ionization_Penalty_Neutral>  (1) 
0

>  <r_epik_State_Penalty>  (1) 
-0

>  <r_glide_ring_energy>  (1) 
0

>  <r_i_docking_score>  (1) 
-4.3435990579717876

>  <r_i_glide_ecoul>  (1) 
-0.52589858464503447

>  <r_i_glide_eff_state_penalty>  (1) 
-0

>  <r_i_glide_einternal>  (1) 
0

>  <r_i_glide_emodel>  (1) 
-19.714265964331037

>  <r_i_glide_emodel_strain>  (1) 
0

>  <r_i_glide_energy>  (1) 
-15.467071261744893

>  <r_i_glide_erotb>  (1) 
0

>  <r_i_glide_esite>  (1) 
0

>  <r_i_glide_evdw>  (1) 
-14.941172677099859

>  <r_i_glide_gscore>  (1) 
-4.3435990579717876

>  <r_i_glide_gscore_strain>  (1) 
0

>  <r_i_glide_hbond>  (1) 
0

>  <r_i_glide_ligand_efficiency>  (1) 
-0.7239331763286313

>  <r_i_glide_ligand_efficiency_ln>  (1) 
-1.5558643593220549

>  <r_i_glide_ligand_efficiency_sa>  (1) 
-1.3154738825411365

>  <r_i_glide_lipo>  (1) 
-0.85098896975337301

>  <r_i_glide_metal>  (1) 
-0

>  <r_i_glide_rewards>  (1) 
-2.666666666666667

>  <r_lp_Energy>  (1) 
-7.9393969999999996

>  <r_lp_tautomer_probability>  (1) 
1

>  <s_epik_cmdline>  (1) 
J2VwaWtfcHl0aG9uJywgJy1waHQnLCAnMS4wJywgJy1waCcsICc3LjQnLCAnLXRuJywgJzgnLCAnLW1hJywgJzUwMCcsICctaW1hZScsICc8aW5maWxlLm1hZT4nLCAnLW9tYWUnLCAnPG91dGZpbGUubWFlPic=

>  <s_epik_input>  (1) 
W0NIMl0xW0NIMl1PW0NIXT1DMVtDSDNd

>  <s_glide_docking_method>  (1) 
confgen

>  <s_i_glide_gridfile>  (1) 
gpcr_drd2_6luq_protein_autoprepared_prepared

>  <s_lp_Force_Field>  (1) 
S-OPLS

>  <s_lp_Variant>  (1) 
Pocket2Mol_11-1

>  <s_m_source_file>  (1) 
generated_generic_title2_ligand_Pocket2Mol_2026-06-23_prepared.sdf

>  <GenAI_Model>  (1) 
Pocket2Mol

>  <Protein>  (1) 
generic_title2

$$$$
Pocket2Mol_43
     RDKit          3D

  0  0  0  0  0  0  0  0  0  0999 V3000
M  V30 BEGIN CTAB
M  V30 COUNTS 8 8 0 0 1
M  V30 BEGIN ATOM
M  V30 1 N 12.175410 7.030672 -2.812637 0
M  V30 2 C 11.480795 6.693532 -3.985024 0
M  V30 3 C 11.375410 7.754836 -4.862961 0
M  V30 4 C 12.575410 8.296001 -2.802792 0
M  V30 5 S 12.159705 9.190227 -4.235576 0
M  V30 6 H 11.096338 5.691726 -4.108619 0
M  V30 7 H 10.892665 7.776544 -5.829452 0
M  V30 8 H 13.117696 8.697000 -1.958396 0
M  V30 END ATOM
M  V30 BEGIN BOND
M  V30 1 1 2 1
M  V30 2 2 3 2
M  V30 3 2 4 1
M  V30 4 1 5 3
M  V30 5 1 5 4
M  V30 6 1 6 2
M  V30 7 1 7 3
M  V30 8 1 8 4
M  V30 END BOND
M  V30 END CTAB
M  END
>  <i_epik_Tot_Q>  (1) 
0

>  <i_epik_Tot_abs_Q>  (1) 
0

>  <i_i_glide_confnum>  (1) 
1

>  <i_i_glide_lignum>  (1) 
48

>  <i_i_glide_posenum>  (1) 
301

>  <i_i_glide_rotatable_bonds>  (1) 
0

>  <i_lp_mmshare_version>  (1) 
72125

>  <i_m_source_file_index>  (1) 
44

>  <i_f3d_flags>  (1) 
0

>  <num_sample>  (1) 
50

>  <b_lp_Chiralities_Consistent>  (1) 
1

>  <r_epik_Charging_Adjusted_Penalty>  (1) 
0

>  <r_epik_Ionization_Penalty>  (1) 
1.4882382677604034e-05

>  <r_epik_Ionization_Penalty_Charging>  (1) 
0

>  <r_epik_Ionization_Penalty_Neutral>  (1) 
1.4882382677604034e-05

>  <r_epik_State_Penalty>  (1) 
-0

>  <r_glide_ring_energy>  (1) 
0

>  <r_i_docking_score>  (1) 
-4.3329013175044828

>  <r_i_glide_ecoul>  (1) 
-1.2146248680832654

>  <r_i_glide_eff_state_penalty>  (1) 
-0

>  <r_i_glide_einternal>  (1) 
0

>  <r_i_glide_emodel>  (1) 
-19.750354577887219

>  <r_i_glide_emodel_strain>  (1) 
0

>  <r_i_glide_energy>  (1) 
-15.314892324554773

>  <r_i_glide_erotb>  (1) 
0

>  <r_i_glide_esite>  (1) 
0

>  <r_i_glide_evdw>  (1) 
-14.100267456471506

>  <r_i_glide_gscore>  (1) 
-4.3329013175044828

>  <r_i_glide_gscore_strain>  (1) 
0

>  <r_i_glide_hbond>  (1) 
0

>  <r_i_glide_ligand_efficiency>  (1) 
-0.86658026350089656

>  <r_i_glide_ligand_efficiency_ln>  (1) 
-1.6604730455007164

>  <r_i_glide_ligand_efficiency_sa>  (1) 
-1.4818314064512872

>  <r_i_glide_lipo>  (1) 
-1.0394674737664629

>  <r_i_glide_metal>  (1) 
-0

>  <r_i_glide_rewards>  (1) 
-2.4062267407019555

>  <r_lp_Energy>  (1) 
1.6688799999999999

>  <r_lp_tautomer_probability>  (1) 
1

>  <s_epik_cmdline>  (1) 
J2VwaWtfcHl0aG9uJywgJy1waHQnLCAnMS4wJywgJy1waCcsICc3LjQnLCAnLXRuJywgJzgnLCAnLW1hJywgJzUwMCcsICctaW1hZScsICc8aW5maWxlLm1hZT4nLCAnLW9tYWUnLCAnPG91dGZpbGUubWFlPic=

>  <s_epik_input>  (1) 
bjFbY0hdW2NIXXNbY0hdMQ==

>  <s_glide_docking_method>  (1) 
confgen

>  <s_i_glide_gridfile>  (1) 
gpcr_drd2_6luq_protein_autoprepared_prepared

>  <s_lp_Force_Field>  (1) 
S-OPLS

>  <s_lp_Variant>  (1) 
Pocket2Mol_43-1

>  <s_m_source_file>  (1) 
generated_generic_title2_ligand_Pocket2Mol_2026-06-23_prepared.sdf

>  <GenAI_Model>  (1) 
Pocket2Mol

>  <Protein>  (1) 
generic_title2

$$$$
Pocket2Mol_32
     RDKit          3D

  0  0  0  0  0  0  0  0  0  0999 V3000
M  V30 BEGIN CTAB
M  V30 COUNTS 12 12 0 0 1
M  V30 BEGIN ATOM
M  V30 1 N 11.375270 8.073326 -5.112773 0
M  V30 2 C 11.830435 9.081131 -4.398693 0
M  V30 3 C 12.279836 8.725119 -3.249173 0
M  V30 4 C 12.175409 7.237264 -2.966340 0
M  V30 5 C 11.430945 6.790231 -4.385025 0
M  V30 6 H 11.777976 10.073771 -4.822457 0
M  V30 7 H 13.160445 6.790229 -2.836340 0
M  V30 8 H 11.557168 7.038835 -2.090382 0
M  V30 9 H 12.012034 6.052603 -4.938967 0
M  V30 10 H 10.430242 6.390227 -4.215403 0
M  V30 11 H 12.690465 9.407346 -2.518531 0
M  V30 12 H 10.786547 8.190639 -5.927104 0
M  V30 END ATOM
M  V30 BEGIN BOND
M  V30 1 1 2 1
M  V30 2 2 3 2
M  V30 3 1 4 3
M  V30 4 1 5 1
M  V30 5 1 5 4
M  V30 6 1 6 2
M  V30 7 1 7 4
M  V30 8 1 8 4
M  V30 9 1 9 5
M  V30 10 1 10 5
M  V30 11 1 11 3
M  V30 12 1 12 1
M  V30 END BOND
M  V30 END CTAB
M  END
>  <i_epik_Tot_Q>  (1) 
0

>  <i_epik_Tot_abs_Q>  (1) 
0

>  <i_i_glide_confnum>  (1) 
1

>  <i_i_glide_lignum>  (1) 
36

>  <i_i_glide_posenum>  (1) 
157

>  <i_i_glide_rotatable_bonds>  (1) 
0

>  <i_lp_mmshare_version>  (1) 
72125

>  <i_m_source_file_index>  (1) 
33

>  <i_f3d_flags>  (1) 
0

>  <num_sample>  (1) 
50

>  <b_lp_Chiralities_Consistent>  (1) 
1

>  <r_epik_Charging_Adjusted_Penalty>  (1) 
1.6042444336516156e-06

>  <r_epik_Ionization_Penalty>  (1) 
0.0023556498582944039

>  <r_epik_Ionization_Penalty_Charging>  (1) 
1.6042444336516156e-06

>  <r_epik_Ionization_Penalty_Neutral>  (1) 
0.0023540456138607521

>  <r_epik_State_Penalty>  (1) 
-0

>  <r_glide_ring_energy>  (1) 
0

>  <r_i_docking_score>  (1) 
-4.3171247337345466

>  <r_i_glide_ecoul>  (1) 
-1.2893014466007786

>  <r_i_glide_eff_state_penalty>  (1) 
-0

>  <r_i_glide_einternal>  (1) 
0

>  <r_i_glide_emodel>  (1) 
-18.313146681780935

>  <r_i_glide_emodel_strain>  (1) 
0

>  <r_i_glide_energy>  (1) 
-14.005293566592744

>  <r_i_glide_erotb>  (1) 
0

>  <r_i_glide_esite>  (1) 
0

>  <r_i_glide_evdw>  (1) 
-12.715992119991967

>  <r_i_glide_gscore>  (1) 
-4.3171247337345466

>  <r_i_glide_gscore_strain>  (1) 
0

>  <r_i_glide_hbond>  (1) 
0

>  <r_i_glide_ligand_efficiency>  (1) 
-0.86342494674690928

>  <r_i_glide_ligand_efficiency_ln>  (1) 
-1.6544270753342067

>  <r_i_glide_ligand_efficiency_sa>  (1) 
-1.476435890697823

>  <r_i_glide_lipo>  (1) 
-1.2379299107448314

>  <r_i_glide_metal>  (1) 
-0

>  <r_i_glide_rewards>  (1) 
-2.25

>  <r_lp_Energy>  (1) 
2.9163329999999998

>  <r_lp_tautomer_probability>  (1) 
1

>  <s_epik_Chemistry_Notes>  (1) 
This compound has an imine and may undergo hydrolysis.

>  <s_epik_cmdline>  (1) 
J2VwaWtfcHl0aG9uJywgJy1waHQnLCAnMS4wJywgJy1waCcsICc3LjQnLCAnLXRuJywgJzgnLCAnLW1hJywgJzUwMCcsICctaW1hZScsICc8aW5maWxlLm1hZT4nLCAnLW9tYWUnLCAnPG91dGZpbGUubWFlPic=

>  <s_epik_input>  (1) 
W05IXTFbQ0hdPVtDSF1bQ0gyXVtDSDJdMQ==

>  <s_glide_docking_method>  (1) 
confgen

>  <s_i_glide_gridfile>  (1) 
gpcr_drd2_6luq_protein_autoprepared_prepared

>  <s_lp_Force_Field>  (1) 
S-OPLS

>  <s_lp_Variant>  (1) 
Pocket2Mol_32-1

>  <s_m_source_file>  (1) 
generated_generic_title2_ligand_Pocket2Mol_2026-06-23_prepared.sdf

>  <GenAI_Model>  (1) 
Pocket2Mol

>  <Protein>  (1) 
generic_title2

$$$$
Pocket2Mol_33
     RDKit          3D

  0  0  0  0  0  0  0  0  0  0999 V3000
M  V30 BEGIN CTAB
M  V30 COUNTS 21 22 0 0 1
M  V30 BEGIN ATOM
M  V30 1 C 9.668033 5.838507 -8.009104 0
M  V30 2 O 10.864541 6.519178 -8.340440 0
M  V30 3 C 10.590268 7.908444 -8.259819 0 CFG=2
M  V30 4 C 10.175416 8.390227 -9.649440 0
M  V30 5 C 11.775233 8.661240 -7.676581 0
M  V30 6 C 9.216907 6.606270 -6.785008 0
M  V30 7 C 11.477923 8.674992 -6.181352 0
M  V30 8 C 9.502893 8.043079 -7.185026 0 CFG=1
M  V30 9 O 10.070148 8.790227 -6.114203 0
M  V30 10 H 9.845389 4.790227 -7.811164 0
M  V30 11 H 8.936231 5.910535 -8.815283 0
M  V30 12 H 9.830405 9.420008 -9.585024 0
M  V30 13 H 11.007544 8.346045 -10.352118 0
M  V30 14 H 9.357529 7.801334 -10.062474 0
M  V30 15 H 11.775410 9.683347 -8.050452 0
M  V30 16 H 12.737674 8.211318 -7.921939 0
M  V30 17 H 9.822356 6.314939 -5.926335 0
M  V30 18 H 8.175407 6.426153 -6.530118 0
M  V30 19 H 11.975609 9.490797 -5.656693 0
M  V30 20 H 11.775410 7.734388 -5.717443 0
M  V30 21 H 8.605466 8.538300 -7.557867 0
M  V30 END ATOM
M  V30 BEGIN BOND
M  V30 1 1 2 1
M  V30 2 1 3 2
M  V30 3 1 3 4 CFG=3
M  V30 4 1 5 3
M  V30 5 1 6 1
M  V30 6 1 7 5
M  V30 7 1 8 3
M  V30 8 1 8 6
M  V30 9 1 9 7
M  V30 10 1 9 8
M  V30 11 1 10 1
M  V30 12 1 11 1
M  V30 13 1 12 4
M  V30 14 1 13 4
M  V30 15 1 14 4
M  V30 16 1 15 5
M  V30 17 1 16 5
M  V30 18 1 17 6
M  V30 19 1 18 6
M  V30 20 1 19 7
M  V30 21 1 20 7
M  V30 22 1 8 21 CFG=3
M  V30 END BOND
M  V30 END CTAB
M  END
>  <i_epik_Tot_Q>  (1) 
0

>  <i_epik_Tot_abs_Q>  (1) 
0

>  <i_i_glide_confnum>  (1) 
2

>  <i_i_glide_lignum>  (1) 
37

>  <i_i_glide_posenum>  (1) 
174

>  <i_i_glide_rotatable_bonds>  (1) 
0

>  <i_lp_mmshare_version>  (1) 
72125

>  <i_m_source_file_index>  (1) 
34

>  <i_f3d_flags>  (1) 
0

>  <num_sample>  (1) 
50

>  <b_lp_Chiralities_Consistent>  (1) 
1

>  <r_epik_Charging_Adjusted_Penalty>  (1) 
0

>  <r_epik_Ionization_Penalty>  (1) 
2.529470820146915e-12

>  <r_epik_Ionization_Penalty_Charging>  (1) 
0

>  <r_epik_Ionization_Penalty_Neutral>  (1) 
2.529470820146915e-12

>  <r_epik_State_Penalty>  (1) 
-0

>  <r_glide_ring_energy>  (1) 
0.058801660810398726

>  <r_i_docking_score>  (1) 
-4.3034083161948598

>  <r_i_glide_ecoul>  (1) 
-1.1634131121301956

>  <r_i_glide_eff_state_penalty>  (1) 
-0

>  <r_i_glide_einternal>  (1) 
0

>  <r_i_glide_emodel>  (1) 
-22.545411443925236

>  <r_i_glide_emodel_strain>  (1) 
0

>  <r_i_glide_energy>  (1) 
-17.69675815362287

>  <r_i_glide_erotb>  (1) 
0

>  <r_i_glide_esite>  (1) 
0

>  <r_i_glide_evdw>  (1) 
-16.533345041492673

>  <r_i_glide_gscore>  (1) 
-4.3034083161948598

>  <r_i_glide_gscore_strain>  (1) 
0

>  <r_i_glide_hbond>  (1) 
0

>  <r_i_glide_ligand_efficiency>  (1) 
-0.47815647957720664

>  <r_i_glide_ligand_efficiency_ln>  (1) 
-1.3459824957870996

>  <r_i_glide_ligand_efficiency_sa>  (1) 
-0.99460555805599582

>  <r_i_glide_lipo>  (1) 
-0.47963319474839949

>  <r_i_glide_metal>  (1) 
-0

>  <r_i_glide_rewards>  (1) 
-2.8225959025522971

>  <r_lp_Energy>  (1) 
-0.369228

>  <r_lp_tautomer_probability>  (1) 
1

>  <s_epik_cmdline>  (1) 
J2VwaWtfcHl0aG9uJywgJy1waHQnLCAnMS4wJywgJy1waCcsICc3LjQnLCAnLXRuJywgJzgnLCAnLW1hJywgJzUwMCcsICctaW1hZScsICc8aW5maWxlLm1hZT4nLCAnLW9tYWUnLCAnPG91dGZpbGUubWFlPic=

>  <s_epik_input>  (1) 
TzFbQ0gyXVtDSDJdW0NASF0oW0NAXTEyW0NIM10pT1tDSDJdW0NIMl0y

>  <s_glide_docking_method>  (1) 
confgen

>  <s_i_glide_gridfile>  (1) 
gpcr_drd2_6luq_protein_autoprepared_prepared

>  <s_lp_Force_Field>  (1) 
S-OPLS

>  <s_lp_Variant>  (1) 
Pocket2Mol_33-1

>  <s_m_source_file>  (1) 
generated_generic_title2_ligand_Pocket2Mol_2026-06-23_prepared.sdf

>  <GenAI_Model>  (1) 
Pocket2Mol

>  <Protein>  (1) 
generic_title2

$$$$
Pocket2Mol_32
     RDKit          3D

  0  0  0  0  0  0  0  0  0  0999 V3000
M  V30 BEGIN CTAB
M  V30 COUNTS 12 12 0 0 1
M  V30 BEGIN ATOM
M  V30 1 N 11.375410 7.136437 -4.566741 0
M  V30 2 C 12.139927 7.572877 -3.584652 0
M  V30 3 C 12.373999 8.833473 -3.651956 0
M  V30 4 C 11.735340 9.528114 -4.843152 0
M  V30 5 C 11.024257 8.193362 -5.532835 0
M  V30 6 H 12.484973 6.861387 -2.847443 0
M  V30 7 H 11.009777 10.276517 -4.520515 0
M  V30 8 H 12.482962 9.986332 -5.491336 0
M  V30 9 H 9.942953 8.301529 -5.621740 0
M  V30 10 H 11.447033 7.963291 -6.511338 0
M  V30 11 H 12.977877 9.379739 -2.940593 0
M  V30 12 H 11.200812 6.158420 -4.755984 0
M  V30 END ATOM
M  V30 BEGIN BOND
M  V30 1 1 2 1
M  V30 2 2 3 2
M  V30 3 1 4 3
M  V30 4 1 5 1
M  V30 5 1 5 4
M  V30 6 1 6 2
M  V30 7 1 7 4
M  V30 8 1 8 4
M  V30 9 1 9 5
M  V30 10 1 10 5
M  V30 11 1 11 3
M  V30 12 1 12 1
M  V30 END BOND
M  V30 END CTAB
M  END
>  <i_epik_Tot_Q>  (1) 
0

>  <i_epik_Tot_abs_Q>  (1) 
0

>  <i_i_glide_confnum>  (1) 
1

>  <i_i_glide_lignum>  (1) 
36

>  <i_i_glide_posenum>  (1) 
309

>  <i_i_glide_rotatable_bonds>  (1) 
0

>  <i_lp_mmshare_version>  (1) 
72125

>  <i_m_source_file_index>  (1) 
33

>  <i_f3d_flags>  (1) 
0

>  <num_sample>  (1) 
50

>  <b_lp_Chiralities_Consistent>  (1) 
1

>  <r_epik_Charging_Adjusted_Penalty>  (1) 
1.6042444336516156e-06

>  <r_epik_Ionization_Penalty>  (1) 
0.0023556498582944039

>  <r_epik_Ionization_Penalty_Charging>  (1) 
1.6042444336516156e-06

>  <r_epik_Ionization_Penalty_Neutral>  (1) 
0.0023540456138607521

>  <r_epik_State_Penalty>  (1) 
-0

>  <r_glide_ring_energy>  (1) 
0

>  <r_i_docking_score>  (1) 
-4.2953439830017137

>  <r_i_glide_ecoul>  (1) 
-1.1956237029865266

>  <r_i_glide_eff_state_penalty>  (1) 
-0

>  <r_i_glide_einternal>  (1) 
0

>  <r_i_glide_emodel>  (1) 
-17.672349937525745

>  <r_i_glide_emodel_strain>  (1) 
0

>  <r_i_glide_energy>  (1) 
-13.386230795915472

>  <r_i_glide_erotb>  (1) 
0

>  <r_i_glide_esite>  (1) 
0

>  <r_i_glide_evdw>  (1) 
-12.190607092928945

>  <r_i_glide_gscore>  (1) 
-4.2953439830017137

>  <r_i_glide_gscore_strain>  (1) 
0

>  <r_i_glide_hbond>  (1) 
0

>  <r_i_glide_ligand_efficiency>  (1) 
-0.85906879660034274

>  <r_i_glide_ligand_efficiency_ln>  (1) 
-1.646080162526262

>  <r_i_glide_ligand_efficiency_sa>  (1) 
-1.4689869787270819

>  <r_i_glide_lipo>  (1) 
-1.2564700729072873

>  <r_i_glide_metal>  (1) 
-0

>  <r_i_glide_rewards>  (1) 
-2.25

>  <r_lp_Energy>  (1) 
2.9163329999999998

>  <r_lp_tautomer_probability>  (1) 
1

>  <s_epik_Chemistry_Notes>  (1) 
This compound has an imine and may undergo hydrolysis.

>  <s_epik_cmdline>  (1) 
J2VwaWtfcHl0aG9uJywgJy1waHQnLCAnMS4wJywgJy1waCcsICc3LjQnLCAnLXRuJywgJzgnLCAnLW1hJywgJzUwMCcsICctaW1hZScsICc8aW5maWxlLm1hZT4nLCAnLW9tYWUnLCAnPG91dGZpbGUubWFlPic=

>  <s_epik_input>  (1) 
W05IXTFbQ0hdPVtDSF1bQ0gyXVtDSDJdMQ==

>  <s_glide_docking_method>  (1) 
confgen

>  <s_i_glide_gridfile>  (1) 
gpcr_drd2_6luq_protein_autoprepared_prepared

>  <s_lp_Force_Field>  (1) 
S-OPLS

>  <s_lp_Variant>  (1) 
Pocket2Mol_32-1

>  <s_m_source_file>  (1) 
generated_generic_title2_ligand_Pocket2Mol_2026-06-23_prepared.sdf

>  <GenAI_Model>  (1) 
Pocket2Mol

>  <Protein>  (1) 
generic_title2

$$$$
Pocket2Mol_5
     RDKit          3D

  0  0  0  0  0  0  0  0  0  0999 V3000
M  V30 BEGIN CTAB
M  V30 COUNTS 14 14 0 0 1
M  V30 BEGIN ATOM
M  V30 1 C 12.175410 9.590227 -6.298741 0
M  V30 2 O 11.375483 9.108661 -7.368992 0
M  V30 3 C 11.537184 9.195204 -4.958442 0
M  V30 4 O 11.375411 7.782773 -4.909453 0
M  V30 5 C 11.214321 7.697175 -7.318253 0
M  V30 6 C 10.562923 7.313008 -5.980170 0
M  V30 7 H 13.189109 9.198493 -6.385043 0
M  V30 8 H 12.242511 10.675614 -6.372849 0
M  V30 9 H 12.169806 9.511994 -4.128981 0
M  V30 10 H 10.575457 9.692820 -4.833756 0
M  V30 11 H 10.585936 7.379508 -8.150619 0
M  V30 12 H 12.178248 7.201744 -7.436507 0
M  V30 13 H 9.558953 7.734315 -5.907102 0
M  V30 14 H 10.462026 6.230317 -5.903098 0
M  V30 END ATOM
M  V30 BEGIN BOND
M  V30 1 1 2 1
M  V30 2 1 3 1
M  V30 3 1 4 3
M  V30 4 1 5 2
M  V30 5 1 6 4
M  V30 6 1 6 5
M  V30 7 1 7 1
M  V30 8 1 8 1
M  V30 9 1 9 3
M  V30 10 1 10 3
M  V30 11 1 11 5
M  V30 12 1 12 5
M  V30 13 1 13 6
M  V30 14 1 14 6
M  V30 END BOND
M  V30 END CTAB
M  END
>  <i_epik_Tot_Q>  (1) 
0

>  <i_epik_Tot_abs_Q>  (1) 
0

>  <i_i_glide_confnum>  (1) 
2

>  <i_i_glide_lignum>  (1) 
6

>  <i_i_glide_posenum>  (1) 
374

>  <i_i_glide_rotatable_bonds>  (1) 
0

>  <i_lp_mmshare_version>  (1) 
72125

>  <i_m_source_file_index>  (1) 
6

>  <i_f3d_flags>  (1) 
0

>  <num_sample>  (1) 
50

>  <b_lp_Chiralities_Consistent>  (1) 
1

>  <r_epik_Charging_Adjusted_Penalty>  (1) 
0

>  <r_epik_Ionization_Penalty>  (1) 
8.3894707547109138e-13

>  <r_epik_Ionization_Penalty_Charging>  (1) 
0

>  <r_epik_Ionization_Penalty_Neutral>  (1) 
8.3894707547109138e-13

>  <r_epik_State_Penalty>  (1) 
-0

>  <r_glide_ring_energy>  (1) 
0.00013676017923054334

>  <r_i_docking_score>  (1) 
-4.2951731390962991

>  <r_i_glide_ecoul>  (1) 
-0.34218357150579459

>  <r_i_glide_eff_state_penalty>  (1) 
-0

>  <r_i_glide_einternal>  (1) 
0

>  <r_i_glide_emodel>  (1) 
-17.475973547825429

>  <r_i_glide_emodel_strain>  (1) 
0

>  <r_i_glide_energy>  (1) 
-13.54728329055213

>  <r_i_glide_erotb>  (1) 
0

>  <r_i_glide_esite>  (1) 
0

>  <r_i_glide_evdw>  (1) 
-13.205099719046336

>  <r_i_glide_gscore>  (1) 
-4.2951731390962991

>  <r_i_glide_gscore_strain>  (1) 
0

>  <r_i_glide_hbond>  (1) 
0

>  <r_i_glide_ligand_efficiency>  (1) 
-0.71586218984938321

>  <r_i_glide_ligand_efficiency_ln>  (1) 
-1.5385183381446363

>  <r_i_glide_ligand_efficiency_sa>  (1) 
-1.3008079268052251

>  <r_i_glide_lipo>  (1) 
-1.0585906174181126

>  <r_i_glide_metal>  (1) 
-0

>  <r_i_glide_rewards>  (1) 
-2.5249999999999999

>  <r_lp_Energy>  (1) 
4.9648199999999996

>  <r_lp_tautomer_probability>  (1) 
1

>  <s_epik_cmdline>  (1) 
J2VwaWtfcHl0aG9uJywgJy1waHQnLCAnMS4wJywgJy1waCcsICc3LjQnLCAnLXRuJywgJzgnLCAnLW1hJywgJzUwMCcsICctaW1hZScsICc8aW5maWxlLm1hZT4nLCAnLW9tYWUnLCAnPG91dGZpbGUubWFlPic=

>  <s_epik_input>  (1) 
W0NIMl0xT1tDSDJdW0NIMl1PW0NIMl0x

>  <s_glide_docking_method>  (1) 
confgen

>  <s_i_glide_gridfile>  (1) 
gpcr_drd2_6luq_protein_autoprepared_prepared

>  <s_lp_Force_Field>  (1) 
S-OPLS

>  <s_lp_Variant>  (1) 
Pocket2Mol_5-1

>  <s_m_source_file>  (1) 
generated_generic_title2_ligand_Pocket2Mol_2026-06-23_prepared.sdf

>  <GenAI_Model>  (1) 
Pocket2Mol

>  <Protein>  (1) 
generic_title2

$$$$
Pocket2Mol_41
     RDKit          3D

  0  0  0  0  0  0  0  0  0  0999 V3000
M  V30 BEGIN CTAB
M  V30 COUNTS 23 24 0 0 1
M  V30 BEGIN ATOM
M  V30 1 C 9.730981 8.266026 -6.566802 0
M  V30 2 O 10.733374 8.790283 -7.415442 0
M  V30 3 C 10.943718 7.884930 -8.487396 0 CFG=2
M  V30 4 C 12.416098 7.990228 -8.897220 0
M  V30 5 C 10.006748 8.172414 -9.668307 0
M  V30 6 C 10.053408 6.782294 -6.530993 0
M  V30 7 C 9.602898 6.791980 -10.183110 0
M  V30 8 C 10.534121 6.503252 -7.946963 0 CFG=1
M  V30 9 C 9.460733 5.961362 -8.906844 0
M  V30 10 H 9.776342 8.729175 -5.585099 0
M  V30 11 H 8.742218 8.445812 -6.992403 0
M  V30 12 H 12.639694 7.314573 -9.721666 0
M  V30 13 H 12.655444 9.003652 -9.221182 0
M  V30 14 H 13.072422 7.747830 -8.061603 0
M  V30 15 H 9.113467 8.699287 -9.324953 0
M  V30 16 H 10.470557 8.790226 -10.435455 0
M  V30 17 H 10.863761 6.600420 -5.824150 0
M  V30 18 H 9.204701 6.170064 -6.227166 0
M  V30 19 H 8.679311 6.817039 -10.763162 0
M  V30 20 H 10.388267 6.390330 -10.822690 0
M  V30 21 H 11.375421 5.818410 -7.914760 0
M  V30 22 H 8.465336 6.111886 -8.488000 0
M  V30 23 H 9.575158 4.893361 -9.093695 0
M  V30 END ATOM
M  V30 BEGIN BOND
M  V30 1 1 2 1
M  V30 2 1 3 2
M  V30 3 1 3 4 CFG=3
M  V30 4 1 5 3
M  V30 5 1 6 1
M  V30 6 1 7 5
M  V30 7 1 8 3
M  V30 8 1 8 6
M  V30 9 1 9 7
M  V30 10 1 9 8
M  V30 11 1 10 1
M  V30 12 1 11 1
M  V30 13 1 12 4
M  V30 14 1 13 4
M  V30 15 1 14 4
M  V30 16 1 15 5
M  V30 17 1 16 5
M  V30 18 1 17 6
M  V30 19 1 18 6
M  V30 20 1 19 7
M  V30 21 1 20 7
M  V30 22 1 8 21 CFG=1
M  V30 23 1 22 9
M  V30 24 1 23 9
M  V30 END BOND
M  V30 END CTAB
M  END
>  <i_epik_Tot_Q>  (1) 
0

>  <i_epik_Tot_abs_Q>  (1) 
0

>  <i_i_glide_confnum>  (1) 
3

>  <i_i_glide_lignum>  (1) 
46

>  <i_i_glide_posenum>  (1) 
398

>  <i_i_glide_rotatable_bonds>  (1) 
0

>  <i_lp_mmshare_version>  (1) 
72125

>  <i_m_source_file_index>  (1) 
42

>  <i_f3d_flags>  (1) 
0

>  <num_sample>  (1) 
50

>  <b_lp_Chiralities_Consistent>  (1) 
1

>  <r_epik_Charging_Adjusted_Penalty>  (1) 
0

>  <r_epik_Ionization_Penalty>  (1) 
2.4347883345708157e-11

>  <r_epik_Ionization_Penalty_Charging>  (1) 
0

>  <r_epik_Ionization_Penalty_Neutral>  (1) 
2.4347883345708157e-11

>  <r_epik_State_Penalty>  (1) 
-0

>  <r_glide_ring_energy>  (1) 
1.1035134730129632

>  <r_i_docking_score>  (1) 
-4.2890225923571377

>  <r_i_glide_ecoul>  (1) 
-0.61301727609831691

>  <r_i_glide_eff_state_penalty>  (1) 
-0

>  <r_i_glide_einternal>  (1) 
0

>  <r_i_glide_emodel>  (1) 
-21.925433347911209

>  <r_i_glide_emodel_strain>  (1) 
0

>  <r_i_glide_energy>  (1) 
-17.314409172971793

>  <r_i_glide_erotb>  (1) 
0

>  <r_i_glide_esite>  (1) 
0

>  <r_i_glide_evdw>  (1) 
-16.701391896873474

>  <r_i_glide_gscore>  (1) 
-4.2890225923571377

>  <r_i_glide_gscore_strain>  (1) 
0

>  <r_i_glide_hbond>  (1) 
0

>  <r_i_glide_ligand_efficiency>  (1) 
-0.47655806581745974

>  <r_i_glide_ligand_efficiency_ln>  (1) 
-1.3414830546343899

>  <r_i_glide_ligand_efficiency_sa>  (1) 
-0.99128072345180274

>  <r_i_glide_lipo>  (1) 
-0.54342985283730472

>  <r_i_glide_metal>  (1) 
-0

>  <r_i_glide_rewards>  (1) 
-2.8185705532614111

>  <r_lp_Energy>  (1) 
5.4699619999999998

>  <r_lp_tautomer_probability>  (1) 
1

>  <s_epik_cmdline>  (1) 
J2VwaWtfcHl0aG9uJywgJy1waHQnLCAnMS4wJywgJy1waCcsICc3LjQnLCAnLXRuJywgJzgnLCAnLW1hJywgJzUwMCcsICctaW1hZScsICc8aW5maWxlLm1hZT4nLCAnLW9tYWUnLCAnPG91dGZpbGUubWFlPic=

>  <s_epik_input>  (1) 
TzFbQ0gyXVtDSDJdW0NASF0oW0NAXTEyW0NIM10pW0NIMl1bQ0gyXVtDSDJdMg==

>  <s_glide_docking_method>  (1) 
confgen

>  <s_i_glide_gridfile>  (1) 
gpcr_drd2_6luq_protein_autoprepared_prepared

>  <s_lp_Force_Field>  (1) 
S-OPLS

>  <s_lp_Variant>  (1) 
Pocket2Mol_41-1

>  <s_m_source_file>  (1) 
generated_generic_title2_ligand_Pocket2Mol_2026-06-23_prepared.sdf

>  <GenAI_Model>  (1) 
Pocket2Mol

>  <Protein>  (1) 
generic_title2

$$$$
Pocket2Mol_13
     RDKit          3D

  0  0  0  0  0  0  0  0  0  0999 V3000
M  V30 BEGIN CTAB
M  V30 COUNTS 17 17 0 0 1
M  V30 BEGIN ATOM
M  V30 1 C 10.935853 7.401301 -6.167751 0
M  V30 2 O 11.367103 8.590111 -6.828389 0
M  V30 3 C 11.642127 8.390214 -8.214064 0
M  V30 4 C 10.359700 7.954976 -8.941552 0 CFG=1
M  V30 5 O 10.649219 7.705894 -10.298843 0
M  V30 6 C 9.615394 6.912808 -6.785042 0
M  V30 7 C 9.775408 6.693213 -8.294462 0
M  V30 8 H 11.705279 6.632352 -6.237039 0
M  V30 9 H 10.796843 7.614528 -5.107887 0
M  V30 10 H 12.409138 7.622585 -8.316725 0
M  V30 11 H 12.047263 9.302244 -8.652432 0
M  V30 12 H 9.626630 8.761464 -8.924706 0
M  V30 13 H 9.848827 7.462505 -10.738266 0
M  V30 14 H 9.293907 5.990227 -6.301730 0
M  V30 15 H 8.832467 7.648137 -6.599526 0
M  V30 16 H 8.804712 6.470157 -8.737288 0
M  V30 17 H 10.414192 5.831969 -8.490198 0
M  V30 END ATOM
M  V30 BEGIN BOND
M  V30 1 1 2 1
M  V30 2 1 3 2
M  V30 3 1 4 3
M  V30 4 1 5 4
M  V30 5 1 6 1
M  V30 6 1 7 4
M  V30 7 1 7 6
M  V30 8 1 8 1
M  V30 9 1 9 1
M  V30 10 1 10 3
M  V30 11 1 11 3
M  V30 12 1 4 12 CFG=3
M  V30 13 1 13 5
M  V30 14 1 14 6
M  V30 15 1 15 6
M  V30 16 1 16 7
M  V30 17 1 17 7
M  V30 END BOND
M  V30 END CTAB
M  END
>  <i_epik_Tot_Q>  (1) 
0

>  <i_epik_Tot_abs_Q>  (1) 
0

>  <i_i_glide_confnum>  (1) 
1

>  <i_i_glide_lignum>  (1) 
16

>  <i_i_glide_posenum>  (1) 
164

>  <i_i_glide_rotatable_bonds>  (1) 
1

>  <i_lp_mmshare_version>  (1) 
72125

>  <i_m_source_file_index>  (1) 
14

>  <i_f3d_flags>  (1) 
0

>  <num_sample>  (1) 
50

>  <b_lp_Chiralities_Consistent>  (1) 
1

>  <r_epik_Charging_Adjusted_Penalty>  (1) 
0

>  <r_epik_Ionization_Penalty>  (1) 
4.2263924331700322e-08

>  <r_epik_Ionization_Penalty_Charging>  (1) 
0

>  <r_epik_Ionization_Penalty_Neutral>  (1) 
4.2263924331700322e-08

>  <r_epik_State_Penalty>  (1) 
-0

>  <r_glide_ring_energy>  (1) 
0

>  <r_i_docking_score>  (1) 
-4.2762577819992993

>  <r_i_glide_ecoul>  (1) 
-1.9938991532315655

>  <r_i_glide_eff_state_penalty>  (1) 
-0

>  <r_i_glide_einternal>  (1) 
0.31911654690942365

>  <r_i_glide_emodel>  (1) 
-23.309221264466387

>  <r_i_glide_emodel_strain>  (1) 
0

>  <r_i_glide_energy>  (1) 
-18.047540538233289

>  <r_i_glide_erotb>  (1) 
0

>  <r_i_glide_esite>  (1) 
0

>  <r_i_glide_evdw>  (1) 
-16.053641385001722

>  <r_i_glide_gscore>  (1) 
-4.2762577819992993

>  <r_i_glide_gscore_strain>  (1) 
0

>  <r_i_glide_hbond>  (1) 
0

>  <r_i_glide_ligand_efficiency>  (1) 
-0.61089396885704272

>  <r_i_glide_ligand_efficiency_ln>  (1) 
-1.4515913811460266

>  <r_i_glide_ligand_efficiency_sa>  (1) 
-1.1685981223942219

>  <r_i_glide_lipo>  (1) 
-0.49949083976447828

>  <r_i_glide_metal>  (1) 
-0

>  <r_i_glide_rewards>  (1) 
-2.6749999999999998

>  <r_lp_Energy>  (1) 
6.7642049999999996

>  <r_lp_tautomer_probability>  (1) 
1

>  <s_epik_cmdline>  (1) 
J2VwaWtfcHl0aG9uJywgJy1waHQnLCAnMS4wJywgJy1waCcsICc3LjQnLCAnLXRuJywgJzgnLCAnLW1hJywgJzUwMCcsICctaW1hZScsICc8aW5maWxlLm1hZT4nLCAnLW9tYWUnLCAnPG91dGZpbGUubWFlPic=

>  <s_epik_input>  (1) 
W0NIMl0xW0NIMl1bQ0gyXU9bQ0gyXVtDQEhdMVtPSF0=

>  <s_glide_docking_method>  (1) 
confgen

>  <s_i_glide_gridfile>  (1) 
gpcr_drd2_6luq_protein_autoprepared_prepared

>  <s_lp_Force_Field>  (1) 
S-OPLS

>  <s_lp_Variant>  (1) 
Pocket2Mol_13-1

>  <s_m_source_file>  (1) 
generated_generic_title2_ligand_Pocket2Mol_2026-06-23_prepared.sdf

>  <GenAI_Model>  (1) 
Pocket2Mol

>  <Protein>  (1) 
generic_title2

$$$$
Pocket2Mol_49
     RDKit          3D

  0  0  0  0  0  0  0  0  0  0999 V3000
M  V30 BEGIN CTAB
M  V30 COUNTS 11 11 0 0 1
M  V30 BEGIN ATOM
M  V30 1 O 11.775466 9.590319 -2.797575 0
M  V30 2 C 12.175421 8.506576 -1.985030 0
M  V30 3 C 12.377564 7.351918 -2.969225 0
M  V30 4 C 11.985292 9.190225 -4.101336 0
M  V30 5 O 11.775553 7.826917 -4.153671 0
M  V30 6 H 13.091706 8.744103 -1.442480 0
M  V30 7 H 11.392018 8.294267 -1.259184 0
M  V30 8 H 13.439388 7.190318 -3.156011 0
M  V30 9 H 11.934271 6.414886 -2.630463 0
M  V30 10 H 11.303307 9.711531 -4.774023 0
M  V30 11 H 13.013885 9.420084 -4.389010 0
M  V30 END ATOM
M  V30 BEGIN BOND
M  V30 1 1 2 1
M  V30 2 1 3 2
M  V30 3 1 4 1
M  V30 4 1 5 3
M  V30 5 1 5 4
M  V30 6 1 6 2
M  V30 7 1 7 2
M  V30 8 1 8 3
M  V30 9 1 9 3
M  V30 10 1 10 4
M  V30 11 1 11 4
M  V30 END BOND
M  V30 END CTAB
M  END
>  <i_epik_Tot_Q>  (1) 
0

>  <i_epik_Tot_abs_Q>  (1) 
0

>  <i_i_glide_confnum>  (1) 
2

>  <i_i_glide_lignum>  (1) 
55

>  <i_i_glide_posenum>  (1) 
195

>  <i_i_glide_rotatable_bonds>  (1) 
0

>  <i_lp_mmshare_version>  (1) 
72125

>  <i_m_source_file_index>  (1) 
50

>  <i_f3d_flags>  (1) 
0

>  <num_sample>  (1) 
50

>  <b_lp_Chiralities_Consistent>  (1) 
1

>  <r_epik_Charging_Adjusted_Penalty>  (1) 
0

>  <r_epik_Ionization_Penalty>  (1) 
7.9724310449397378e-14

>  <r_epik_Ionization_Penalty_Charging>  (1) 
0

>  <r_epik_Ionization_Penalty_Neutral>  (1) 
7.9724310449397378e-14

>  <r_epik_State_Penalty>  (1) 
-0

>  <r_glide_ring_energy>  (1) 
1.1396681620093737e-05

>  <r_i_docking_score>  (1) 
-4.2746456493075975

>  <r_i_glide_ecoul>  (1) 
-0.0050794389105801585

>  <r_i_glide_eff_state_penalty>  (1) 
-0

>  <r_i_glide_einternal>  (1) 
0

>  <r_i_glide_emodel>  (1) 
-17.284974417706479

>  <r_i_glide_emodel_strain>  (1) 
0.085274394871688308

>  <r_i_glide_energy>  (1) 
-13.671475417359424

>  <r_i_glide_erotb>  (1) 
0

>  <r_i_glide_esite>  (1) 
0

>  <r_i_glide_evdw>  (1) 
-13.666395978448845

>  <r_i_glide_gscore>  (1) 
-4.2746456493075975

>  <r_i_glide_gscore_strain>  (1) 
0

>  <r_i_glide_hbond>  (1) 
0

>  <r_i_glide_ligand_efficiency>  (1) 
-0.85492912986151948

>  <r_i_glide_ligand_efficiency_ln>  (1) 
-1.6381480582230754

>  <r_i_glide_ligand_efficiency_sa>  (1) 
-1.4619082481764367

>  <r_i_glide_lipo>  (1) 
-0.66000000000000003

>  <r_i_glide_metal>  (1) 
-0

>  <r_i_glide_rewards>  (1) 
-2.9305639345485686

>  <r_lp_Energy>  (1) 
-12.242958999999999

>  <r_lp_tautomer_probability>  (1) 
1

>  <s_epik_Chemistry_Notes>  (1) 
This compound contains an acetal/aminal-like group ( X-CH(R)-Y where X, Y are N, S, or O) that may be acid/base labile, releasing an aldehyde.

>  <s_epik_cmdline>  (1) 
J2VwaWtfcHl0aG9uJywgJy1waHQnLCAnMS4wJywgJy1waCcsICc3LjQnLCAnLXRuJywgJzgnLCAnLW1hJywgJzUwMCcsICctaW1hZScsICc8aW5maWxlLm1hZT4nLCAnLW9tYWUnLCAnPG91dGZpbGUubWFlPic=

>  <s_epik_input>  (1) 
TzFbQ0gyXVtDSDJdT1tDSDJdMQ==

>  <s_glide_docking_method>  (1) 
confgen

>  <s_i_glide_gridfile>  (1) 
gpcr_drd2_6luq_protein_autoprepared_prepared

>  <s_lp_Force_Field>  (1) 
S-OPLS

>  <s_lp_Variant>  (1) 
Pocket2Mol_49-1

>  <s_m_source_file>  (1) 
generated_generic_title2_ligand_Pocket2Mol_2026-06-23_prepared.sdf

>  <GenAI_Model>  (1) 
Pocket2Mol

>  <Protein>  (1) 
generic_title2

$$$$
Pocket2Mol_32
     RDKit          3D

  0  0  0  0  0  0  0  0  0  0999 V3000
M  V30 BEGIN CTAB
M  V30 COUNTS 12 12 0 0 1
M  V30 BEGIN ATOM
M  V30 1 N 11.375410 7.076124 -4.720521 0
M  V30 2 C 10.975410 8.024225 -5.540097 0
M  V30 3 C 11.375410 9.192822 -5.189356 0
M  V30 4 C 12.201802 9.216731 -3.915699 0
M  V30 5 C 12.170201 7.594479 -3.585027 0
M  V30 6 H 10.367618 7.746055 -6.389938 0
M  V30 7 H 13.209343 9.590028 -4.101335 0
M  V30 8 H 11.717284 9.810516 -3.139731 0
M  V30 9 H 13.180181 7.190227 -3.579133 0
M  V30 10 H 11.689793 7.374242 -2.631381 0
M  V30 11 H 11.148387 10.101190 -5.728381 0
M  V30 12 H 11.032891 6.123898 -4.747243 0
M  V30 END ATOM
M  V30 BEGIN BOND
M  V30 1 1 2 1
M  V30 2 2 3 2
M  V30 3 1 4 3
M  V30 4 1 5 1
M  V30 5 1 5 4
M  V30 6 1 6 2
M  V30 7 1 7 4
M  V30 8 1 8 4
M  V30 9 1 9 5
M  V30 10 1 10 5
M  V30 11 1 11 3
M  V30 12 1 12 1
M  V30 END BOND
M  V30 END CTAB
M  END
>  <i_epik_Tot_Q>  (1) 
0

>  <i_epik_Tot_abs_Q>  (1) 
0

>  <i_i_glide_confnum>  (1) 
1

>  <i_i_glide_lignum>  (1) 
36

>  <i_i_glide_posenum>  (1) 
69

>  <i_i_glide_rotatable_bonds>  (1) 
0

>  <i_lp_mmshare_version>  (1) 
72125

>  <i_m_source_file_index>  (1) 
33

>  <i_f3d_flags>  (1) 
0

>  <num_sample>  (1) 
50

>  <b_lp_Chiralities_Consistent>  (1) 
1

>  <r_epik_Charging_Adjusted_Penalty>  (1) 
1.6042444336516156e-06

>  <r_epik_Ionization_Penalty>  (1) 
0.0023556498582944039

>  <r_epik_Ionization_Penalty_Charging>  (1) 
1.6042444336516156e-06

>  <r_epik_Ionization_Penalty_Neutral>  (1) 
0.0023540456138607521

>  <r_epik_State_Penalty>  (1) 
-0

>  <r_glide_ring_energy>  (1) 
0

>  <r_i_docking_score>  (1) 
-4.2684182273572482

>  <r_i_glide_ecoul>  (1) 
-1.0706812113302395

>  <r_i_glide_eff_state_penalty>  (1) 
-0

>  <r_i_glide_einternal>  (1) 
0

>  <r_i_glide_emodel>  (1) 
-17.819252739322806

>  <r_i_glide_emodel_strain>  (1) 
0

>  <r_i_glide_energy>  (1) 
-13.560001526597103

>  <r_i_glide_erotb>  (1) 
0

>  <r_i_glide_esite>  (1) 
0

>  <r_i_glide_evdw>  (1) 
-12.489320315266864

>  <r_i_glide_gscore>  (1) 
-4.2684182273572482

>  <r_i_glide_gscore_strain>  (1) 
0

>  <r_i_glide_hbond>  (1) 
0

>  <r_i_glide_ligand_efficiency>  (1) 
-0.85368364547144959

>  <r_i_glide_ligand_efficiency_ln>  (1) 
-1.6357615588468399

>  <r_i_glide_ligand_efficiency_sa>  (1) 
-1.4597784998274559

>  <r_i_glide_lipo>  (1) 
-1.2333500298943694

>  <r_i_glide_metal>  (1) 
-0

>  <r_i_glide_rewards>  (1) 
-2.25

>  <r_lp_Energy>  (1) 
2.9163329999999998

>  <r_lp_tautomer_probability>  (1) 
1

>  <s_epik_Chemistry_Notes>  (1) 
This compound has an imine and may undergo hydrolysis.

>  <s_epik_cmdline>  (1) 
J2VwaWtfcHl0aG9uJywgJy1waHQnLCAnMS4wJywgJy1waCcsICc3LjQnLCAnLXRuJywgJzgnLCAnLW1hJywgJzUwMCcsICctaW1hZScsICc8aW5maWxlLm1hZT4nLCAnLW9tYWUnLCAnPG91dGZpbGUubWFlPic=

>  <s_epik_input>  (1) 
W05IXTFbQ0hdPVtDSF1bQ0gyXVtDSDJdMQ==

>  <s_glide_docking_method>  (1) 
confgen

>  <s_i_glide_gridfile>  (1) 
gpcr_drd2_6luq_protein_autoprepared_prepared

>  <s_lp_Force_Field>  (1) 
S-OPLS

>  <s_lp_Variant>  (1) 
Pocket2Mol_32-1

>  <s_m_source_file>  (1) 
generated_generic_title2_ligand_Pocket2Mol_2026-06-23_prepared.sdf

>  <GenAI_Model>  (1) 
Pocket2Mol

>  <Protein>  (1) 
generic_title2

$$$$
Pocket2Mol_8
     RDKit          3D

  0  0  0  0  0  0  0  0  0  0999 V3000
M  V30 BEGIN CTAB
M  V30 COUNTS 13 13 0 0 1
M  V30 BEGIN ATOM
M  V30 1 N 11.419540 8.185638 -9.616537 0 CHG=1
M  V30 2 C 11.368311 8.133166 -8.248734 0
M  V30 3 C 10.056866 7.887931 -7.910141 0
M  V30 4 C 10.209368 7.985224 -10.128570 0
M  V30 5 C 9.385073 7.726810 -6.590764 0
M  V30 6 N 9.378120 7.802051 -9.100574 0
M  V30 7 H 12.240718 8.269576 -7.629773 0
M  V30 8 H 9.945133 7.971907 -11.176967 0
M  V30 9 H 10.110492 7.830335 -5.782632 0
M  V30 10 H 8.613099 8.485005 -6.461762 0
M  V30 11 H 8.924701 6.741355 -6.516984 0
M  V30 12 H 8.350470 7.626320 -9.185026 0
M  V30 13 H 12.259688 8.353842 -10.159152 0
M  V30 END ATOM
M  V30 BEGIN BOND
M  V30 1 1 2 1
M  V30 2 2 3 2
M  V30 3 2 4 1
M  V30 4 1 5 3
M  V30 5 1 6 3
M  V30 6 1 6 4
M  V30 7 1 7 2
M  V30 8 1 8 4
M  V30 9 1 9 5
M  V30 10 1 10 5
M  V30 11 1 11 5
M  V30 12 1 12 6
M  V30 13 1 13 1
M  V30 END BOND
M  V30 END CTAB
M  END
>  <i_epik_Tot_Q>  (1) 
1

>  <i_epik_Tot_abs_Q>  (1) 
1

>  <i_i_glide_confnum>  (1) 
1

>  <i_i_glide_lignum>  (1) 
10

>  <i_i_glide_posenum>  (1) 
234

>  <i_i_glide_rotatable_bonds>  (1) 
0

>  <i_lp_mmshare_version>  (1) 
72125

>  <i_m_source_file_index>  (1) 
9

>  <i_f3d_flags>  (1) 
0

>  <num_sample>  (1) 
50

>  <b_lp_Chiralities_Consistent>  (1) 
1

>  <r_epik_Charging_Adjusted_Penalty>  (1) 
0.63910500234431922

>  <r_epik_Ionization_Penalty>  (1) 
0.82018112513013652

>  <r_epik_Ionization_Penalty_Charging>  (1) 
0

>  <r_epik_Ionization_Penalty_Neutral>  (1) 
0.82018112513013652

>  <r_epik_State_Penalty>  (1) 
0.63910500234431922

>  <r_glide_ring_energy>  (1) 
0

>  <r_i_docking_score>  (1) 
-4.2538113454365512

>  <r_i_glide_ecoul>  (1) 
-11.286009883194556

>  <r_i_glide_eff_state_penalty>  (1) 
0.63910500234431922

>  <r_i_glide_einternal>  (1) 
0

>  <r_i_glide_emodel>  (1) 
-29.185130555282775

>  <r_i_glide_emodel_strain>  (1) 
0

>  <r_i_glide_energy>  (1) 
-20.069461488720926

>  <r_i_glide_erotb>  (1) 
0

>  <r_i_glide_esite>  (1) 
-0.15552388017255306

>  <r_i_glide_evdw>  (1) 
-8.7834516055263681

>  <r_i_glide_gscore>  (1) 
-4.8929163477808704

>  <r_i_glide_gscore_strain>  (1) 
0

>  <r_i_glide_hbond>  (1) 
-0.15299103668631303

>  <r_i_glide_ligand_efficiency>  (1) 
-0.70896855757275856

>  <r_i_glide_ligand_efficiency_ln>  (1) 
-1.5237026657646713

>  <r_i_glide_ligand_efficiency_sa>  (1) 
-1.288281365635958

>  <r_i_glide_lipo>  (1) 
-0.2023273681665016

>  <r_i_glide_metal>  (1) 
-0

>  <r_i_glide_rewards>  (1) 
-2.25

>  <r_lp_Energy>  (1) 
7.4764169999999996

>  <r_lp_tautomer_probability>  (1) 
1

>  <s_epik_cmdline>  (1) 
J2VwaWtfcHl0aG9uJywgJy1waHQnLCAnMS4wJywgJy1waCcsICc3LjQnLCAnLXRuJywgJzgnLCAnLW1hJywgJzUwMCcsICctaW1hZScsICc8aW5maWxlLm1hZT4nLCAnLW9tYWUnLCAnPG91dGZpbGUubWFlPic=

>  <s_epik_input>  (1) 
W25IXTFbY0hdbltjSF1jMVtDSDNd

>  <s_glide_docking_method>  (1) 
confgen

>  <s_i_glide_gridfile>  (1) 
gpcr_drd2_6luq_protein_autoprepared_prepared

>  <s_lp_Force_Field>  (1) 
S-OPLS

>  <s_lp_Variant>  (1) 
Pocket2Mol_8-2

>  <s_m_source_file>  (1) 
generated_generic_title2_ligand_Pocket2Mol_2026-06-23_prepared.sdf

>  <GenAI_Model>  (1) 
Pocket2Mol

>  <Protein>  (1) 
generic_title2

$$$$
Pocket2Mol_11
     RDKit          3D

  0  0  0  0  0  0  0  0  0  0999 V3000
M  V30 BEGIN CTAB
M  V30 COUNTS 14 14 0 0 1
M  V30 BEGIN ATOM
M  V30 1 O 10.548932 8.674046 -5.976243 0
M  V30 2 C 11.555757 8.797196 -6.856854 0
M  V30 3 C 9.520886 7.990228 -6.793773 0
M  V30 4 C 11.349256 8.334562 -8.049417 0
M  V30 5 C 12.351813 8.378038 -9.182581 0
M  V30 6 C 10.034924 7.733050 -8.288649 0
M  V30 7 H 12.441992 9.277076 -6.468048 0
M  V30 8 H 8.612091 8.594199 -6.803761 0
M  V30 9 H 9.261538 7.044021 -6.317096 0
M  V30 10 H 12.514739 7.379120 -9.585957 0
M  V30 11 H 11.986020 9.018035 -9.985524 0
M  V30 12 H 13.311302 8.772895 -8.845271 0
M  V30 13 H 9.459478 8.279399 -9.037512 0
M  V30 14 H 10.103326 6.674901 -8.543772 0
M  V30 END ATOM
M  V30 BEGIN BOND
M  V30 1 1 2 1
M  V30 2 1 3 1
M  V30 3 2 4 2
M  V30 4 1 5 4
M  V30 5 1 6 3
M  V30 6 1 6 4
M  V30 7 1 7 2
M  V30 8 1 8 3
M  V30 9 1 9 3
M  V30 10 1 10 5
M  V30 11 1 11 5
M  V30 12 1 12 5
M  V30 13 1 13 6
M  V30 14 1 14 6
M  V30 END BOND
M  V30 END CTAB
M  END
>  <i_epik_Tot_Q>  (1) 
0

>  <i_epik_Tot_abs_Q>  (1) 
0

>  <i_i_glide_confnum>  (1) 
1

>  <i_i_glide_lignum>  (1) 
14

>  <i_i_glide_posenum>  (1) 
325

>  <i_i_glide_rotatable_bonds>  (1) 
0

>  <i_lp_mmshare_version>  (1) 
72125

>  <i_m_source_file_index>  (1) 
12

>  <i_f3d_flags>  (1) 
0

>  <num_sample>  (1) 
50

>  <b_lp_Chiralities_Consistent>  (1) 
1

>  <r_epik_Charging_Adjusted_Penalty>  (1) 
0

>  <r_epik_Ionization_Penalty>  (1) 
0

>  <r_epik_Ionization_Penalty_Charging>  (1) 
0

>  <r_epik_Ionization_Penalty_Neutral>  (1) 
0

>  <r_epik_State_Penalty>  (1) 
-0

>  <r_glide_ring_energy>  (1) 
0

>  <r_i_docking_score>  (1) 
-4.2514542033660252

>  <r_i_glide_ecoul>  (1) 
-0.75297097429975945

>  <r_i_glide_eff_state_penalty>  (1) 
-0

>  <r_i_glide_einternal>  (1) 
0

>  <r_i_glide_emodel>  (1) 
-19.518954505399215

>  <r_i_glide_emodel_strain>  (1) 
0

>  <r_i_glide_energy>  (1) 
-15.361859541101278

>  <r_i_glide_erotb>  (1) 
0

>  <r_i_glide_esite>  (1) 
0

>  <r_i_glide_evdw>  (1) 
-14.60888856680152

>  <r_i_glide_gscore>  (1) 
-4.2514542033660252

>  <r_i_glide_gscore_strain>  (1) 
0

>  <r_i_glide_hbond>  (1) 
0

>  <r_i_glide_ligand_efficiency>  (1) 
-0.70857570056100416

>  <r_i_glide_ligand_efficiency_ln>  (1) 
-1.522858344433802

>  <r_i_glide_ligand_efficiency_sa>  (1) 
-1.2875674970698607

>  <r_i_glide_lipo>  (1) 
-0.70806412888098491

>  <r_i_glide_metal>  (1) 
-0

>  <r_i_glide_rewards>  (1) 
-2.7000000000000002

>  <r_lp_Energy>  (1) 
-7.9393969999999996

>  <r_lp_tautomer_probability>  (1) 
1

>  <s_epik_cmdline>  (1) 
J2VwaWtfcHl0aG9uJywgJy1waHQnLCAnMS4wJywgJy1waCcsICc3LjQnLCAnLXRuJywgJzgnLCAnLW1hJywgJzUwMCcsICctaW1hZScsICc8aW5maWxlLm1hZT4nLCAnLW9tYWUnLCAnPG91dGZpbGUubWFlPic=

>  <s_epik_input>  (1) 
W0NIMl0xW0NIMl1PW0NIXT1DMVtDSDNd

>  <s_glide_docking_method>  (1) 
confgen

>  <s_i_glide_gridfile>  (1) 
gpcr_drd2_6luq_protein_autoprepared_prepared

>  <s_lp_Force_Field>  (1) 
S-OPLS

>  <s_lp_Variant>  (1) 
Pocket2Mol_11-1

>  <s_m_source_file>  (1) 
generated_generic_title2_ligand_Pocket2Mol_2026-06-23_prepared.sdf

>  <GenAI_Model>  (1) 
Pocket2Mol

>  <Protein>  (1) 
generic_title2

$$$$
Pocket2Mol_19
     RDKit          3D

  0  0  0  0  0  0  0  0  0  0999 V3000
M  V30 BEGIN CTAB
M  V30 COUNTS 12 12 0 0 1
M  V30 BEGIN ATOM
M  V30 1 N 7.208694 6.707151 -11.582725 0 CHG=1
M  V30 2 C 6.315419 6.717745 -12.599660 0
M  V30 3 C 6.604923 6.029233 -13.800773 0
M  V30 4 C 8.392960 6.063951 -11.662742 0
M  V30 5 O 5.712365 6.029305 -14.832769 0 CHG=-1
M  V30 6 C 7.829484 5.339226 -13.920509 0
M  V30 7 C 8.737121 5.357712 -12.838775 0
M  V30 8 H 5.404309 7.268922 -12.427707 0
M  V30 9 H 9.025001 6.130492 -10.794224 0
M  V30 10 H 6.975399 7.222260 -10.690018 0
M  V30 11 H 8.068544 4.804378 -14.830006 0
M  V30 12 H 9.682582 4.836847 -12.909986 0
M  V30 END ATOM
M  V30 BEGIN BOND
M  V30 1 1 2 1
M  V30 2 2 3 2
M  V30 3 2 4 1
M  V30 4 1 5 3
M  V30 5 1 6 3
M  V30 6 1 7 4
M  V30 7 2 7 6
M  V30 8 1 8 2
M  V30 9 1 9 4
M  V30 10 1 10 1
M  V30 11 1 11 6
M  V30 12 1 12 7
M  V30 END BOND
M  V30 END CTAB
M  END
>  <i_epik_Tot_Q>  (1) 
0

>  <i_epik_Tot_abs_Q>  (1) 
2

>  <i_i_glide_confnum>  (1) 
1

>  <i_i_glide_lignum>  (1) 
22

>  <i_i_glide_posenum>  (1) 
225

>  <i_i_glide_rotatable_bonds>  (1) 
0

>  <i_lp_mmshare_version>  (1) 
72125

>  <i_m_source_file_index>  (1) 
20

>  <i_f3d_flags>  (1) 
0

>  <num_sample>  (1) 
50

>  <b_lp_Chiralities_Consistent>  (1) 
1

>  <r_epik_Charging_Adjusted_Penalty>  (1) 
0.36510749842979956

>  <r_epik_Ionization_Penalty>  (1) 
0.025180683492302028

>  <r_epik_Ionization_Penalty_Charging>  (1) 
0.025180683492302028

>  <r_epik_Ionization_Penalty_Neutral>  (1) 
0

>  <r_epik_State_Penalty>  (1) 
0.33992681493749755

>  <r_glide_ring_energy>  (1) 
0

>  <r_i_docking_score>  (1) 
-4.248969813515572

>  <r_i_glide_ecoul>  (1) 
-9.3691923129938814

>  <r_i_glide_eff_state_penalty>  (1) 
0.33992681493749755

>  <r_i_glide_einternal>  (1) 
0

>  <r_i_glide_emodel>  (1) 
-25.230867644156387

>  <r_i_glide_emodel_strain>  (1) 
0

>  <r_i_glide_energy>  (1) 
-16.610151925745207

>  <r_i_glide_erotb>  (1) 
0

>  <r_i_glide_esite>  (1) 
-0.10000000000000001

>  <r_i_glide_evdw>  (1) 
-7.2409596127513272

>  <r_i_glide_gscore>  (1) 
-4.5888966284530692

>  <r_i_glide_gscore_strain>  (1) 
0

>  <r_i_glide_hbond>  (1) 
-0.13521929530019389

>  <r_i_glide_ligand_efficiency>  (1) 
-0.60699568764508172

>  <r_i_glide_ligand_efficiency_ln>  (1) 
-1.442328380204712

>  <r_i_glide_ligand_efficiency_sa>  (1) 
-1.1611409787046458

>  <r_i_glide_lipo>  (1) 
-0.33625050556622665

>  <r_i_glide_metal>  (1) 
-0

>  <r_i_glide_rewards>  (1) 
-2.25

>  <r_lp_Energy>  (1) 
9.275188

>  <r_lp_tautomer_probability>  (1) 
0.56342000000000003

>  <s_epik_cmdline>  (1) 
J2VwaWtfcHl0aG9uJywgJy1waHQnLCAnMS4wJywgJy1waCcsICc3LjQnLCAnLXRuJywgJzgnLCAnLW1hJywgJzUwMCcsICctaW1hZScsICc8aW5maWxlLm1hZT4nLCAnLW9tYWUnLCAnPG91dGZpbGUubWFlPic=

>  <s_epik_input>  (1) 
W2NIXTFbY0hdW2NIXW5bY0hdYzFbT0hd

>  <s_glide_docking_method>  (1) 
confgen

>  <s_i_glide_gridfile>  (1) 
gpcr_drd2_6luq_protein_autoprepared_prepared

>  <s_lp_Force_Field>  (1) 
S-OPLS

>  <s_lp_Variant>  (1) 
Pocket2Mol_19-1

>  <s_m_source_file>  (1) 
generated_generic_title2_ligand_Pocket2Mol_2026-06-23_prepared.sdf

>  <GenAI_Model>  (1) 
Pocket2Mol

>  <Protein>  (1) 
generic_title2

$$$$
Pocket2Mol_0
     RDKit          3D

  0  0  0  0  0  0  0  0  0  0999 V3000
M  V30 BEGIN CTAB
M  V30 COUNTS 10 10 0 0 1
M  V30 BEGIN ATOM
M  V30 1 N 11.375908 8.113291 -5.185802 0
M  V30 2 C 10.808833 6.937668 -5.585026 0
M  V30 3 C 10.107246 7.009862 -6.674660 0
M  V30 4 C 10.949133 8.881706 -6.147518 0
M  V30 5 C 10.029219 8.329878 -7.309067 0
M  V30 6 H 10.966132 6.045841 -4.995339 0
M  V30 7 H 9.597453 6.163013 -7.111607 0
M  V30 8 H 11.200140 9.944283 -6.204884 0
M  V30 9 H 9.026246 8.759200 -7.299023 0
M  V30 10 H 10.507660 8.373745 -8.287408 0
M  V30 END ATOM
M  V30 BEGIN BOND
M  V30 1 1 2 1
M  V30 2 2 3 2
M  V30 3 2 4 1
M  V30 4 1 5 3
M  V30 5 1 5 4
M  V30 6 1 6 2
M  V30 7 1 7 3
M  V30 8 1 8 4
M  V30 9 1 9 5
M  V30 10 1 10 5
M  V30 END BOND
M  V30 END CTAB
M  END
>  <i_epik_Tot_Q>  (1) 
0

>  <i_epik_Tot_abs_Q>  (1) 
0

>  <i_i_glide_confnum>  (1) 
1

>  <i_i_glide_lignum>  (1) 
1

>  <i_i_glide_posenum>  (1) 
207

>  <i_i_glide_rotatable_bonds>  (1) 
0

>  <i_lp_mmshare_version>  (1) 
72125

>  <i_m_source_file_index>  (1) 
1

>  <i_f3d_flags>  (1) 
0

>  <num_sample>  (1) 
50

>  <b_lp_Chiralities_Consistent>  (1) 
1

>  <r_epik_Charging_Adjusted_Penalty>  (1) 
0

>  <r_epik_Ionization_Penalty>  (1) 
0

>  <r_epik_Ionization_Penalty_Charging>  (1) 
0

>  <r_epik_Ionization_Penalty_Neutral>  (1) 
0

>  <r_epik_State_Penalty>  (1) 
-0

>  <r_glide_ring_energy>  (1) 
0

>  <r_i_docking_score>  (1) 
-4.2471793300720115

>  <r_i_glide_ecoul>  (1) 
-0.97224907047663101

>  <r_i_glide_eff_state_penalty>  (1) 
-0

>  <r_i_glide_einternal>  (1) 
0

>  <r_i_glide_emodel>  (1) 
-17.775021331453139

>  <r_i_glide_emodel_strain>  (1) 
0

>  <r_i_glide_energy>  (1) 
-13.773579448589414

>  <r_i_glide_erotb>  (1) 
0

>  <r_i_glide_esite>  (1) 
0

>  <r_i_glide_evdw>  (1) 
-12.801330378112784

>  <r_i_glide_gscore>  (1) 
-4.2471793300720115

>  <r_i_glide_gscore_strain>  (1) 
0

>  <r_i_glide_hbond>  (1) 
0

>  <r_i_glide_ligand_efficiency>  (1) 
-0.84943586601440235

>  <r_i_glide_ligand_efficiency_ln>  (1) 
-1.6276222974434427

>  <r_i_glide_ligand_efficiency_sa>  (1) 
-1.4525148991291175

>  <r_i_glide_lipo>  (1) 
-0.49304408680454936

>  <r_i_glide_metal>  (1) 
-0

>  <r_i_glide_rewards>  (1) 
-2.9682313637903288

>  <r_lp_Energy>  (1) 
-2.9532909999999997

>  <r_lp_tautomer_probability>  (1) 
1

>  <s_epik_Chemistry_Notes>  (1) 
This compound has an imine and may undergo hydrolysis.

>  <s_epik_cmdline>  (1) 
J2VwaWtfcHl0aG9uJywgJy1waHQnLCAnMS4wJywgJy1waCcsICc3LjQnLCAnLXRuJywgJzgnLCAnLW1hJywgJzUwMCcsICctaW1hZScsICc8aW5maWxlLm1hZT4nLCAnLW9tYWUnLCAnPG91dGZpbGUubWFlPic=

>  <s_epik_input>  (1) 
TjE9W0NIXVtDSDJdW0NIXT1bQ0hdMQ==

>  <s_glide_docking_method>  (1) 
confgen

>  <s_i_glide_gridfile>  (1) 
gpcr_drd2_6luq_protein_autoprepared_prepared

>  <s_lp_Force_Field>  (1) 
S-OPLS

>  <s_lp_Variant>  (1) 
Pocket2Mol_0-1

>  <s_m_source_file>  (1) 
generated_generic_title2_ligand_Pocket2Mol_2026-06-23_prepared.sdf

>  <GenAI_Model>  (1) 
Pocket2Mol

>  <Protein>  (1) 
generic_title2

$$$$
Pocket2Mol_24
     RDKit          3D

  0  0  0  0  0  0  0  0  0  0999 V3000
M  V30 BEGIN CTAB
M  V30 COUNTS 15 15 0 0 1
M  V30 BEGIN ATOM
M  V30 1 N 9.593712 5.032234 -12.031935 0 CHG=1
M  V30 2 C 8.510867 4.190393 -11.993808 0
M  V30 3 C 7.557082 4.803950 -11.192953 0
M  V30 4 C 9.343987 6.107562 -11.300786 0
M  V30 5 C 6.181428 4.390282 -10.785023 0
M  V30 6 N 10.172327 7.135578 -11.116379 0
M  V30 7 N 8.128332 5.990227 -10.785025 0
M  V30 8 H 8.492682 3.247600 -12.522587 0
M  V30 9 H 5.649779 3.960993 -11.634137 0
M  V30 10 H 6.220205 3.648367 -9.987582 0
M  V30 11 H 5.614129 5.249592 -10.424011 0
M  V30 12 H 11.088461 7.175794 -11.538093 0
M  V30 13 H 9.924700 7.932764 -10.545435 0
M  V30 14 H 7.674260 6.690188 -10.178097 0
M  V30 15 H 10.453616 4.859913 -12.543561 0
M  V30 END ATOM
M  V30 BEGIN BOND
M  V30 1 1 2 1
M  V30 2 2 3 2
M  V30 3 2 4 1
M  V30 4 1 5 3
M  V30 5 1 6 4
M  V30 6 1 7 3
M  V30 7 1 7 4
M  V30 8 1 8 2
M  V30 9 1 9 5
M  V30 10 1 10 5
M  V30 11 1 11 5
M  V30 12 1 12 6
M  V30 13 1 13 6
M  V30 14 1 14 7
M  V30 15 1 15 1
M  V30 END BOND
M  V30 END CTAB
M  END
>  <i_epik_Tot_Q>  (1) 
1

>  <i_epik_Tot_abs_Q>  (1) 
1

>  <i_i_glide_confnum>  (1) 
1

>  <i_i_glide_lignum>  (1) 
28

>  <i_i_glide_posenum>  (1) 
396

>  <i_i_glide_rotatable_bonds>  (1) 
0

>  <i_lp_mmshare_version>  (1) 
72125

>  <i_m_source_file_index>  (1) 
25

>  <i_f3d_flags>  (1) 
0

>  <num_sample>  (1) 
50

>  <b_lp_Chiralities_Consistent>  (1) 
1

>  <r_epik_Charging_Adjusted_Penalty>  (1) 
0.028937443406262361

>  <r_epik_Ionization_Penalty>  (1) 
0.025358402846536118

>  <r_epik_Ionization_Penalty_Charging>  (1) 
0

>  <r_epik_Ionization_Penalty_Neutral>  (1) 
0.025358402846536118

>  <r_epik_State_Penalty>  (1) 
0.028937443406262361

>  <r_glide_ring_energy>  (1) 
0

>  <r_i_docking_score>  (1) 
-4.2354225686926901

>  <r_i_glide_ecoul>  (1) 
-7.3746161783668471

>  <r_i_glide_eff_state_penalty>  (1) 
0.028937443406262361

>  <r_i_glide_einternal>  (1) 
0

>  <r_i_glide_emodel>  (1) 
-23.40632206115162

>  <r_i_glide_emodel_strain>  (1) 
0.027373583712750005

>  <r_i_glide_energy>  (1) 
-15.003243900362696

>  <r_i_glide_erotb>  (1) 
0

>  <r_i_glide_esite>  (1) 
-0.15505476836097529

>  <r_i_glide_evdw>  (1) 
-7.6286277219958487

>  <r_i_glide_gscore>  (1) 
-4.264360012098952

>  <r_i_glide_gscore_strain>  (1) 
0

>  <r_i_glide_hbond>  (1) 
-0.20000000000000001

>  <r_i_glide_ligand_efficiency>  (1) 
-0.60506036695609855

>  <r_i_glide_ligand_efficiency_ln>  (1) 
-1.4377297182844813

>  <r_i_glide_ligand_efficiency_sa>  (1) 
-1.1574388434100256

>  <r_i_glide_lipo>  (1) 
-0.17168143088315729

>  <r_i_glide_metal>  (1) 
-0

>  <r_i_glide_rewards>  (1) 
-2.25

>  <r_lp_Energy>  (1) 
-0.73901799999999995

>  <r_lp_tautomer_probability>  (1) 
0.99999998112300037

>  <s_epik_cmdline>  (1) 
J2VwaWtfcHl0aG9uJywgJy1waHQnLCAnMS4wJywgJy1waCcsICc3LjQnLCAnLXRuJywgJzgnLCAnLW1hJywgJzUwMCcsICctaW1hZScsICc8aW5maWxlLm1hZT4nLCAnLW9tYWUnLCAnPG91dGZpbGUubWFlPic=

>  <s_epik_input>  (1) 
W05IMl1jKFtuSF0xKW5bY0hdYzFbQ0gzXQ==

>  <s_glide_docking_method>  (1) 
confgen

>  <s_i_glide_gridfile>  (1) 
gpcr_drd2_6luq_protein_autoprepared_prepared

>  <s_lp_Force_Field>  (1) 
S-OPLS

>  <s_lp_Variant>  (1) 
Pocket2Mol_24-1

>  <s_m_source_file>  (1) 
generated_generic_title2_ligand_Pocket2Mol_2026-06-23_prepared.sdf

>  <GenAI_Model>  (1) 
Pocket2Mol

>  <Protein>  (1) 
generic_title2

$$$$
Pocket2Mol_49
     RDKit          3D

  0  0  0  0  0  0  0  0  0  0999 V3000
M  V30 BEGIN CTAB
M  V30 COUNTS 11 11 0 0 1
M  V30 BEGIN ATOM
M  V30 1 O 11.838411 9.566223 -2.784214 0
M  V30 2 C 12.175410 8.785884 -3.907540 0
M  V30 3 C 12.071016 7.348026 -3.379737 0
M  V30 4 C 12.241516 8.790227 -1.713916 0
M  V30 5 O 11.889461 7.485974 -1.985035 0
M  V30 6 H 11.503120 8.981297 -4.743309 0
M  V30 7 H 13.195110 9.018057 -4.218447 0
M  V30 8 H 11.231558 6.803200 -3.813642 0
M  V30 9 H 12.975413 6.790227 -3.584961 0
M  V30 10 H 13.326503 8.847466 -1.600713 0
M  V30 11 H 11.775410 9.135161 -0.791186 0
M  V30 END ATOM
M  V30 BEGIN BOND
M  V30 1 1 2 1
M  V30 2 1 3 2
M  V30 3 1 4 1
M  V30 4 1 5 3
M  V30 5 1 5 4
M  V30 6 1 6 2
M  V30 7 1 7 2
M  V30 8 1 8 3
M  V30 9 1 9 3
M  V30 10 1 10 4
M  V30 11 1 11 4
M  V30 END BOND
M  V30 END CTAB
M  END
>  <i_epik_Tot_Q>  (1) 
0

>  <i_epik_Tot_abs_Q>  (1) 
0

>  <i_i_glide_confnum>  (1) 
1

>  <i_i_glide_lignum>  (1) 
55

>  <i_i_glide_posenum>  (1) 
33

>  <i_i_glide_rotatable_bonds>  (1) 
0

>  <i_lp_mmshare_version>  (1) 
72125

>  <i_m_source_file_index>  (1) 
50

>  <i_f3d_flags>  (1) 
0

>  <num_sample>  (1) 
50

>  <b_lp_Chiralities_Consistent>  (1) 
1

>  <r_epik_Charging_Adjusted_Penalty>  (1) 
0

>  <r_epik_Ionization_Penalty>  (1) 
7.9724310449397378e-14

>  <r_epik_Ionization_Penalty_Charging>  (1) 
0

>  <r_epik_Ionization_Penalty_Neutral>  (1) 
7.9724310449397378e-14

>  <r_epik_State_Penalty>  (1) 
-0

>  <r_glide_ring_energy>  (1) 
0

>  <r_i_docking_score>  (1) 
-4.2352339294161307

>  <r_i_glide_ecoul>  (1) 
-0.89898553612126941

>  <r_i_glide_eff_state_penalty>  (1) 
-0

>  <r_i_glide_einternal>  (1) 
0

>  <r_i_glide_emodel>  (1) 
-16.48494295623906

>  <r_i_glide_emodel_strain>  (1) 
0.14926209824816361

>  <r_i_glide_energy>  (1) 
-12.969533906086992

>  <r_i_glide_erotb>  (1) 
0

>  <r_i_glide_esite>  (1) 
0

>  <r_i_glide_evdw>  (1) 
-12.070548369965723

>  <r_i_glide_gscore>  (1) 
-4.2352339294161307

>  <r_i_glide_gscore_strain>  (1) 
0

>  <r_i_glide_hbond>  (1) 
0

>  <r_i_glide_ligand_efficiency>  (1) 
-0.84704678588322613

>  <r_i_glide_ligand_efficiency_ln>  (1) 
-1.6230445297184624

>  <r_i_glide_ligand_efficiency_sa>  (1) 
-1.4484296295701231

>  <r_i_glide_lipo>  (1) 
-0.66000000000000003

>  <r_i_glide_metal>  (1) 
-0

>  <r_i_glide_rewards>  (1) 
-2.8368586804996538

>  <r_lp_Energy>  (1) 
-12.242958999999999

>  <r_lp_tautomer_probability>  (1) 
1

>  <s_epik_Chemistry_Notes>  (1) 
This compound contains an acetal/aminal-like group ( X-CH(R)-Y where X, Y are N, S, or O) that may be acid/base labile, releasing an aldehyde.

>  <s_epik_cmdline>  (1) 
J2VwaWtfcHl0aG9uJywgJy1waHQnLCAnMS4wJywgJy1waCcsICc3LjQnLCAnLXRuJywgJzgnLCAnLW1hJywgJzUwMCcsICctaW1hZScsICc8aW5maWxlLm1hZT4nLCAnLW9tYWUnLCAnPG91dGZpbGUubWFlPic=

>  <s_epik_input>  (1) 
TzFbQ0gyXVtDSDJdT1tDSDJdMQ==

>  <s_glide_docking_method>  (1) 
confgen

>  <s_i_glide_gridfile>  (1) 
gpcr_drd2_6luq_protein_autoprepared_prepared

>  <s_lp_Force_Field>  (1) 
S-OPLS

>  <s_lp_Variant>  (1) 
Pocket2Mol_49-1

>  <s_m_source_file>  (1) 
generated_generic_title2_ligand_Pocket2Mol_2026-06-23_prepared.sdf

>  <GenAI_Model>  (1) 
Pocket2Mol

>  <Protein>  (1) 
generic_title2

$$$$
Pocket2Mol_21
     RDKit          3D

  0  0  0  0  0  0  0  0  0  0999 V3000
M  V30 BEGIN CTAB
M  V30 COUNTS 9 9 0 0 1
M  V30 BEGIN ATOM
M  V30 1 C 12.004732 9.190207 -4.446973 0
M  V30 2 O 11.775410 7.843458 -4.385026 0
M  V30 3 C 10.975424 7.553196 -5.458272 0
M  V30 4 C 11.375410 9.742672 -5.525863 0
M  V30 5 C 10.706145 8.678596 -6.182872 0
M  V30 6 H 12.627383 9.587399 -3.658278 0
M  V30 7 H 10.694387 6.513951 -5.555532 0
M  V30 8 H 11.394126 10.785772 -5.805901 0
M  V30 9 H 10.099373 8.728209 -7.076019 0
M  V30 END ATOM
M  V30 BEGIN BOND
M  V30 1 1 2 1
M  V30 2 1 3 2
M  V30 3 2 4 1
M  V30 4 2 5 3
M  V30 5 1 5 4
M  V30 6 1 6 1
M  V30 7 1 7 3
M  V30 8 1 8 4
M  V30 9 1 9 5
M  V30 END BOND
M  V30 END CTAB
M  END
>  <i_epik_Tot_Q>  (1) 
0

>  <i_epik_Tot_abs_Q>  (1) 
0

>  <i_i_glide_confnum>  (1) 
1

>  <i_i_glide_lignum>  (1) 
25

>  <i_i_glide_posenum>  (1) 
193

>  <i_i_glide_rotatable_bonds>  (1) 
0

>  <i_lp_mmshare_version>  (1) 
72125

>  <i_m_source_file_index>  (1) 
22

>  <i_f3d_flags>  (1) 
0

>  <num_sample>  (1) 
50

>  <b_lp_Chiralities_Consistent>  (1) 
1

>  <r_epik_Charging_Adjusted_Penalty>  (1) 
0

>  <r_epik_Ionization_Penalty>  (1) 
0

>  <r_epik_Ionization_Penalty_Charging>  (1) 
0

>  <r_epik_Ionization_Penalty_Neutral>  (1) 
0

>  <r_epik_State_Penalty>  (1) 
-0

>  <r_glide_ring_energy>  (1) 
0

>  <r_i_docking_score>  (1) 
-4.2313209289552471

>  <r_i_glide_ecoul>  (1) 
-0.75097599287412409

>  <r_i_glide_eff_state_penalty>  (1) 
-0

>  <r_i_glide_einternal>  (1) 
0

>  <r_i_glide_emodel>  (1) 
-15.81178135837437

>  <r_i_glide_emodel_strain>  (1) 
0

>  <r_i_glide_energy>  (1) 
-12.542804513983651

>  <r_i_glide_erotb>  (1) 
0

>  <r_i_glide_esite>  (1) 
0

>  <r_i_glide_evdw>  (1) 
-11.791828521109526

>  <r_i_glide_gscore>  (1) 
-4.2313209289552471

>  <r_i_glide_gscore_strain>  (1) 
0

>  <r_i_glide_hbond>  (1) 
0

>  <r_i_glide_ligand_efficiency>  (1) 
-0.84626418579104945

>  <r_i_glide_ligand_efficiency_ln>  (1) 
-1.6215449728820119

>  <r_i_glide_ligand_efficiency_sa>  (1) 
-1.4470914022366339

>  <r_i_glide_lipo>  (1) 
-1.1446471272140004

>  <r_i_glide_metal>  (1) 
-0

>  <r_i_glide_rewards>  (1) 
-2.3844359767546521

>  <r_lp_Energy>  (1) 
2.5980879999999997

>  <r_lp_tautomer_probability>  (1) 
1

>  <s_epik_cmdline>  (1) 
J2VwaWtfcHl0aG9uJywgJy1waHQnLCAnMS4wJywgJy1waCcsICc3LjQnLCAnLXRuJywgJzgnLCAnLW1hJywgJzUwMCcsICctaW1hZScsICc8aW5maWxlLm1hZT4nLCAnLW9tYWUnLCAnPG91dGZpbGUubWFlPic=

>  <s_epik_input>  (1) 
W2NIXTFvW2NIXVtjSF1bY0hdMQ==

>  <s_glide_docking_method>  (1) 
confgen

>  <s_i_glide_gridfile>  (1) 
gpcr_drd2_6luq_protein_autoprepared_prepared

>  <s_lp_Force_Field>  (1) 
S-OPLS

>  <s_lp_Variant>  (1) 
Pocket2Mol_21-1

>  <s_m_source_file>  (1) 
generated_generic_title2_ligand_Pocket2Mol_2026-06-23_prepared.sdf

>  <GenAI_Model>  (1) 
Pocket2Mol

>  <Protein>  (1) 
generic_title2

$$$$
Pocket2Mol_4
     RDKit          3D

  0  0  0  0  0  0  0  0  0  0999 V3000
M  V30 BEGIN CTAB
M  V30 COUNTS 16 16 0 0 1
M  V30 BEGIN ATOM
M  V30 1 C 11.625531 8.545889 -7.408386 0
M  V30 2 O 10.672959 8.401973 -8.456750 0
M  V30 3 C 10.163667 7.077319 -8.582025 0
M  V30 4 C 9.456763 6.651054 -7.285522 0
M  V30 5 C 10.402922 6.790227 -6.089389 0
M  V30 6 C 10.975410 8.210119 -6.056829 0
M  V30 7 H 12.488695 7.905401 -7.597062 0
M  V30 8 H 11.985719 9.574098 -7.400839 0
M  V30 9 H 9.462519 7.046298 -9.416542 0
M  V30 10 H 10.975411 6.390227 -8.820852 0
M  V30 11 H 8.575411 7.275022 -7.131598 0
M  V30 12 H 9.097467 5.625177 -7.370060 0
M  V30 13 H 9.874515 6.565620 -5.163088 0
M  V30 14 H 11.212607 6.063853 -6.172813 0
M  V30 15 H 11.702008 8.307114 -5.249773 0
M  V30 16 H 10.176924 8.923878 -5.849931 0
M  V30 END ATOM
M  V30 BEGIN BOND
M  V30 1 1 2 1
M  V30 2 1 3 2
M  V30 3 1 4 3
M  V30 4 1 5 4
M  V30 5 1 6 1
M  V30 6 1 6 5
M  V30 7 1 7 1
M  V30 8 1 8 1
M  V30 9 1 9 3
M  V30 10 1 10 3
M  V30 11 1 11 4
M  V30 12 1 12 4
M  V30 13 1 13 5
M  V30 14 1 14 5
M  V30 15 1 15 6
M  V30 16 1 16 6
M  V30 END BOND
M  V30 END CTAB
M  END
>  <i_epik_Tot_Q>  (1) 
0

>  <i_epik_Tot_abs_Q>  (1) 
0

>  <i_i_glide_confnum>  (1) 
1

>  <i_i_glide_lignum>  (1) 
5

>  <i_i_glide_posenum>  (1) 
168

>  <i_i_glide_rotatable_bonds>  (1) 
0

>  <i_lp_mmshare_version>  (1) 
72125

>  <i_m_source_file_index>  (1) 
5

>  <i_f3d_flags>  (1) 
0

>  <num_sample>  (1) 
50

>  <b_lp_Chiralities_Consistent>  (1) 
1

>  <r_epik_Charging_Adjusted_Penalty>  (1) 
0

>  <r_epik_Ionization_Penalty>  (1) 
1.5229185111393156e-11

>  <r_epik_Ionization_Penalty_Charging>  (1) 
0

>  <r_epik_Ionization_Penalty_Neutral>  (1) 
1.5229185111393156e-11

>  <r_epik_State_Penalty>  (1) 
-0

>  <r_glide_ring_energy>  (1) 
0

>  <r_i_docking_score>  (1) 
-4.2200339832359699

>  <r_i_glide_ecoul>  (1) 
-0.20581617080624637

>  <r_i_glide_eff_state_penalty>  (1) 
-0

>  <r_i_glide_einternal>  (1) 
0

>  <r_i_glide_emodel>  (1) 
-18.385701864744828

>  <r_i_glide_emodel_strain>  (1) 
0

>  <r_i_glide_energy>  (1) 
-14.367393248270863

>  <r_i_glide_erotb>  (1) 
0

>  <r_i_glide_esite>  (1) 
0

>  <r_i_glide_evdw>  (1) 
-14.161577077464617

>  <r_i_glide_gscore>  (1) 
-4.2200339832359699

>  <r_i_glide_gscore_strain>  (1) 
0

>  <r_i_glide_hbond>  (1) 
0

>  <r_i_glide_ligand_efficiency>  (1) 
-0.70333899720599502

>  <r_i_glide_ligand_efficiency_ln>  (1) 
-1.5116037143424985

>  <r_i_glide_ligand_efficiency_sa>  (1) 
-1.2780517755649203

>  <r_i_glide_lipo>  (1) 
-0.78841314421950393

>  <r_i_glide_metal>  (1) 
-0

>  <r_i_glide_rewards>  (1) 
-2.6926695595222978

>  <r_lp_Energy>  (1) 
2.9645999999999999

>  <r_lp_tautomer_probability>  (1) 
1

>  <s_epik_cmdline>  (1) 
J2VwaWtfcHl0aG9uJywgJy1waHQnLCAnMS4wJywgJy1waCcsICc3LjQnLCAnLXRuJywgJzgnLCAnLW1hJywgJzUwMCcsICctaW1hZScsICc8aW5maWxlLm1hZT4nLCAnLW9tYWUnLCAnPG91dGZpbGUubWFlPic=

>  <s_epik_input>  (1) 
W0NIMl0xT1tDSDJdW0NIMl1bQ0gyXVtDSDJdMQ==

>  <s_glide_docking_method>  (1) 
confgen

>  <s_i_glide_gridfile>  (1) 
gpcr_drd2_6luq_protein_autoprepared_prepared

>  <s_lp_Force_Field>  (1) 
S-OPLS

>  <s_lp_Variant>  (1) 
Pocket2Mol_4-1

>  <s_m_source_file>  (1) 
generated_generic_title2_ligand_Pocket2Mol_2026-06-23_prepared.sdf

>  <GenAI_Model>  (1) 
Pocket2Mol

>  <Protein>  (1) 
generic_title2

$$$$
Pocket2Mol_13
     RDKit          3D

  0  0  0  0  0  0  0  0  0  0999 V3000
M  V30 BEGIN CTAB
M  V30 COUNTS 17 17 0 0 1
M  V30 BEGIN ATOM
M  V30 1 C 10.064271 7.057008 -6.884017 0
M  V30 2 O 11.375289 7.543692 -6.620963 0
M  V30 3 C 11.665057 8.790191 -7.249309 0
M  V30 4 C 11.496361 8.718990 -8.784106 0 CFG=1
M  V30 5 O 12.609558 8.076520 -9.373198 0
M  V30 6 C 9.921992 6.772973 -8.384394 0
M  V30 7 C 10.175568 8.050075 -9.191899 0
M  V30 8 H 9.907325 6.141395 -6.313555 0
M  V30 9 H 9.314551 7.775024 -6.546468 0
M  V30 10 H 12.675326 9.104567 -6.985587 0
M  V30 11 H 10.993568 9.542363 -6.832378 0
M  V30 12 H 11.502623 9.733036 -9.184942 0
M  V30 13 H 13.359771 8.647757 -9.288894 0
M  V30 14 H 10.627269 5.996673 -8.680628 0
M  V30 15 H 8.923549 6.390226 -8.599958 0
M  V30 16 H 9.356525 8.745188 -9.002150 0
M  V30 17 H 10.154447 7.842526 -10.262231 0
M  V30 END ATOM
M  V30 BEGIN BOND
M  V30 1 1 2 1
M  V30 2 1 3 2
M  V30 3 1 4 3
M  V30 4 1 5 4
M  V30 5 1 6 1
M  V30 6 1 7 4
M  V30 7 1 7 6
M  V30 8 1 8 1
M  V30 9 1 9 1
M  V30 10 1 10 3
M  V30 11 1 11 3
M  V30 12 1 4 12 CFG=3
M  V30 13 1 13 5
M  V30 14 1 14 6
M  V30 15 1 15 6
M  V30 16 1 16 7
M  V30 17 1 17 7
M  V30 END BOND
M  V30 END CTAB
M  END
>  <i_epik_Tot_Q>  (1) 
0

>  <i_epik_Tot_abs_Q>  (1) 
0

>  <i_i_glide_confnum>  (1) 
2

>  <i_i_glide_lignum>  (1) 
16

>  <i_i_glide_posenum>  (1) 
233

>  <i_i_glide_rotatable_bonds>  (1) 
1

>  <i_lp_mmshare_version>  (1) 
72125

>  <i_m_source_file_index>  (1) 
14

>  <i_f3d_flags>  (1) 
0

>  <num_sample>  (1) 
50

>  <b_lp_Chiralities_Consistent>  (1) 
1

>  <r_epik_Charging_Adjusted_Penalty>  (1) 
0

>  <r_epik_Ionization_Penalty>  (1) 
4.2263924331700322e-08

>  <r_epik_Ionization_Penalty_Charging>  (1) 
0

>  <r_epik_Ionization_Penalty_Neutral>  (1) 
4.2263924331700322e-08

>  <r_epik_State_Penalty>  (1) 
-0

>  <r_glide_ring_energy>  (1) 
0.68055942654544588

>  <r_i_docking_score>  (1) 
-4.2077838561159693

>  <r_i_glide_ecoul>  (1) 
-2.0101565407350828

>  <r_i_glide_eff_state_penalty>  (1) 
-0

>  <r_i_glide_einternal>  (1) 
0.47681536679412234

>  <r_i_glide_emodel>  (1) 
-22.982514427887139

>  <r_i_glide_emodel_strain>  (1) 
0

>  <r_i_glide_energy>  (1) 
-17.886491142445944

>  <r_i_glide_erotb>  (1) 
0

>  <r_i_glide_esite>  (1) 
0

>  <r_i_glide_evdw>  (1) 
-15.876334601710861

>  <r_i_glide_gscore>  (1) 
-4.2077838561159693

>  <r_i_glide_gscore_strain>  (1) 
0

>  <r_i_glide_hbond>  (1) 
0

>  <r_i_glide_ligand_efficiency>  (1) 
-0.6011119794451385

>  <r_i_glide_ligand_efficiency_ln>  (1) 
-1.4283476559749488

>  <r_i_glide_ligand_efficiency_sa>  (1) 
-1.1498858498186408

>  <r_i_glide_lipo>  (1) 
-0.5511947115656658

>  <r_i_glide_metal>  (1) 
-0

>  <r_i_glide_rewards>  (1) 
-2.5612489333544981

>  <r_lp_Energy>  (1) 
6.7642049999999996

>  <r_lp_tautomer_probability>  (1) 
1

>  <s_epik_cmdline>  (1) 
J2VwaWtfcHl0aG9uJywgJy1waHQnLCAnMS4wJywgJy1waCcsICc3LjQnLCAnLXRuJywgJzgnLCAnLW1hJywgJzUwMCcsICctaW1hZScsICc8aW5maWxlLm1hZT4nLCAnLW9tYWUnLCAnPG91dGZpbGUubWFlPic=

>  <s_epik_input>  (1) 
W0NIMl0xW0NIMl1bQ0gyXU9bQ0gyXVtDQEhdMVtPSF0=

>  <s_glide_docking_method>  (1) 
confgen

>  <s_i_glide_gridfile>  (1) 
gpcr_drd2_6luq_protein_autoprepared_prepared

>  <s_lp_Force_Field>  (1) 
S-OPLS

>  <s_lp_Variant>  (1) 
Pocket2Mol_13-1

>  <s_m_source_file>  (1) 
generated_generic_title2_ligand_Pocket2Mol_2026-06-23_prepared.sdf

>  <GenAI_Model>  (1) 
Pocket2Mol

>  <Protein>  (1) 
generic_title2

$$$$
Pocket2Mol_1
     RDKit          3D

  0  0  0  0  0  0  0  0  0  0999 V3000
M  V30 BEGIN CTAB
M  V30 COUNTS 10 10 0 0 1
M  V30 BEGIN ATOM
M  V30 1 N 12.395985 9.112460 -3.188301 0
M  V30 2 C 11.775410 9.379718 -4.385025 0
M  V30 3 C 11.375410 8.177895 -4.905884 0
M  V30 4 C 11.775403 7.152912 -3.984919 0
M  V30 5 C 12.403891 7.764312 -2.932004 0
M  V30 6 H 12.794551 9.814849 -2.576430 0
M  V30 7 H 11.674837 10.390227 -4.752297 0
M  V30 8 H 10.853967 8.045079 -5.843032 0
M  V30 9 H 11.616851 6.088417 -4.085389 0
M  V30 10 H 12.850880 7.366835 -2.032731 0
M  V30 END ATOM
M  V30 BEGIN BOND
M  V30 1 1 2 1
M  V30 2 2 3 2
M  V30 3 1 4 3
M  V30 4 1 5 1
M  V30 5 2 5 4
M  V30 6 1 6 1
M  V30 7 1 7 2
M  V30 8 1 8 3
M  V30 9 1 9 4
M  V30 10 1 10 5
M  V30 END BOND
M  V30 END CTAB
M  END
>  <i_epik_Tot_Q>  (1) 
0

>  <i_epik_Tot_abs_Q>  (1) 
0

>  <i_i_glide_confnum>  (1) 
1

>  <i_i_glide_lignum>  (1) 
2

>  <i_i_glide_posenum>  (1) 
337

>  <i_i_glide_rotatable_bonds>  (1) 
0

>  <i_lp_mmshare_version>  (1) 
72125

>  <i_m_source_file_index>  (1) 
2

>  <i_f3d_flags>  (1) 
0

>  <num_sample>  (1) 
50

>  <b_lp_Chiralities_Consistent>  (1) 
1

>  <r_epik_Charging_Adjusted_Penalty>  (1) 
0

>  <r_epik_Ionization_Penalty>  (1) 
4.7655302421719939e-09

>  <r_epik_Ionization_Penalty_Charging>  (1) 
0

>  <r_epik_Ionization_Penalty_Neutral>  (1) 
4.7655302421719939e-09

>  <r_epik_State_Penalty>  (1) 
-0

>  <r_glide_ring_energy>  (1) 
0

>  <r_i_docking_score>  (1) 
-4.2045118102745

>  <r_i_glide_ecoul>  (1) 
-1.5231969610317992

>  <r_i_glide_eff_state_penalty>  (1) 
-0

>  <r_i_glide_einternal>  (1) 
0

>  <r_i_glide_emodel>  (1) 
-17.421931803795339

>  <r_i_glide_emodel_strain>  (1) 
0

>  <r_i_glide_energy>  (1) 
-13.002328228774084

>  <r_i_glide_erotb>  (1) 
0

>  <r_i_glide_esite>  (1) 
0

>  <r_i_glide_evdw>  (1) 
-11.479131267742286

>  <r_i_glide_gscore>  (1) 
-4.2045118102745

>  <r_i_glide_gscore_strain>  (1) 
0

>  <r_i_glide_hbond>  (1) 
-0.17276322430298635

>  <r_i_glide_ligand_efficiency>  (1) 
-0.84090236205489999

>  <r_i_glide_ligand_efficiency_ln>  (1) 
-1.6112710673205879

>  <r_i_glide_ligand_efficiency_sa>  (1) 
-1.4379228126174983

>  <r_i_glide_lipo>  (1) 
-0.97931247842962954

>  <r_i_glide_metal>  (1) 
-0

>  <r_i_glide_rewards>  (1) 
-2.25

>  <r_lp_Energy>  (1) 
2.9132020000000001

>  <r_lp_tautomer_probability>  (1) 
1

>  <s_epik_cmdline>  (1) 
J2VwaWtfcHl0aG9uJywgJy1waHQnLCAnMS4wJywgJy1waCcsICc3LjQnLCAnLXRuJywgJzgnLCAnLW1hJywgJzUwMCcsICctaW1hZScsICc8aW5maWxlLm1hZT4nLCAnLW9tYWUnLCAnPG91dGZpbGUubWFlPic=

>  <s_epik_input>  (1) 
W25IXTFbY0hdW2NIXVtjSF1bY0hdMQ==

>  <s_glide_docking_method>  (1) 
confgen

>  <s_i_glide_gridfile>  (1) 
gpcr_drd2_6luq_protein_autoprepared_prepared

>  <s_lp_Force_Field>  (1) 
S-OPLS

>  <s_lp_Variant>  (1) 
Pocket2Mol_1-1

>  <s_m_source_file>  (1) 
generated_generic_title2_ligand_Pocket2Mol_2026-06-23_prepared.sdf

>  <GenAI_Model>  (1) 
Pocket2Mol

>  <Protein>  (1) 
generic_title2

$$$$
Pocket2Mol_6
     RDKit          3D

  0  0  0  0  0  0  0  0  0  0999 V3000
M  V30 BEGIN CTAB
M  V30 COUNTS 11 11 0 0 1
M  V30 BEGIN ATOM
M  V30 1 N 10.588900 8.789918 -6.148245 0
M  V30 2 C 11.766601 9.000650 -6.783378 0
M  V30 3 C 12.020824 8.588982 -8.106338 0
M  V30 4 C 11.006657 7.925836 -8.811999 0
M  V30 5 C 9.782480 7.698296 -8.168613 0
M  V30 6 C 9.619614 8.145205 -6.844057 0
M  V30 7 H 12.529308 9.514189 -6.217015 0
M  V30 8 H 12.978157 8.782283 -8.568931 0
M  V30 9 H 11.165143 7.597473 -9.828572 0
M  V30 10 H 8.975417 7.190675 -8.680424 0
M  V30 11 H 8.685337 7.984578 -6.327145 0
M  V30 END ATOM
M  V30 BEGIN BOND
M  V30 1 2 2 1
M  V30 2 1 3 2
M  V30 3 2 4 3
M  V30 4 1 5 4
M  V30 5 1 6 1
M  V30 6 2 6 5
M  V30 7 1 7 2
M  V30 8 1 8 3
M  V30 9 1 9 4
M  V30 10 1 10 5
M  V30 11 1 11 6
M  V30 END BOND
M  V30 END CTAB
M  END
>  <i_epik_Tot_Q>  (1) 
0

>  <i_epik_Tot_abs_Q>  (1) 
0

>  <i_i_glide_confnum>  (1) 
1

>  <i_i_glide_lignum>  (1) 
7

>  <i_i_glide_posenum>  (1) 
299

>  <i_i_glide_rotatable_bonds>  (1) 
0

>  <i_lp_mmshare_version>  (1) 
72125

>  <i_m_source_file_index>  (1) 
7

>  <i_f3d_flags>  (1) 
0

>  <num_sample>  (1) 
50

>  <b_lp_Chiralities_Consistent>  (1) 
1

>  <r_epik_Charging_Adjusted_Penalty>  (1) 
0

>  <r_epik_Ionization_Penalty>  (1) 
0.0028947865417402485

>  <r_epik_Ionization_Penalty_Charging>  (1) 
0

>  <r_epik_Ionization_Penalty_Neutral>  (1) 
0.0028947865417402485

>  <r_epik_State_Penalty>  (1) 
-0

>  <r_glide_ring_energy>  (1) 
0

>  <r_i_docking_score>  (1) 
-4.1968844429064536

>  <r_i_glide_ecoul>  (1) 
-1.2743398697933581

>  <r_i_glide_eff_state_penalty>  (1) 
-0

>  <r_i_glide_einternal>  (1) 
0

>  <r_i_glide_emodel>  (1) 
-18.784084527393876

>  <r_i_glide_emodel_strain>  (1) 
0

>  <r_i_glide_energy>  (1) 
-14.800723417512753

>  <r_i_glide_erotb>  (1) 
0

>  <r_i_glide_esite>  (1) 
0

>  <r_i_glide_evdw>  (1) 
-13.526383547719394

>  <r_i_glide_gscore>  (1) 
-4.1968844429064536

>  <r_i_glide_gscore_strain>  (1) 
0

>  <r_i_glide_hbond>  (1) 
0

>  <r_i_glide_ligand_efficiency>  (1) 
-0.69948074048440889

>  <r_i_glide_ligand_efficiency_ln>  (1) 
-1.5033116173389134

>  <r_i_glide_ligand_efficiency_sa>  (1) 
-1.2710408578236934

>  <r_i_glide_lipo>  (1) 
-0.64608095171814683

>  <r_i_glide_metal>  (1) 
-0

>  <r_i_glide_rewards>  (1) 
-2.6833333333333336

>  <r_lp_Energy>  (1) 
11.088944

>  <r_lp_tautomer_probability>  (1) 
1

>  <s_epik_cmdline>  (1) 
J2VwaWtfcHl0aG9uJywgJy1waHQnLCAnMS4wJywgJy1waCcsICc3LjQnLCAnLXRuJywgJzgnLCAnLW1hJywgJzUwMCcsICctaW1hZScsICc8aW5maWxlLm1hZT4nLCAnLW9tYWUnLCAnPG91dGZpbGUubWFlPic=

>  <s_epik_input>  (1) 
bjFbY0hdW2NIXVtjSF1bY0hdW2NIXTE=

>  <s_glide_docking_method>  (1) 
confgen

>  <s_i_glide_gridfile>  (1) 
gpcr_drd2_6luq_protein_autoprepared_prepared

>  <s_lp_Force_Field>  (1) 
S-OPLS

>  <s_lp_Variant>  (1) 
Pocket2Mol_6-1

>  <s_m_source_file>  (1) 
generated_generic_title2_ligand_Pocket2Mol_2026-06-23_prepared.sdf

>  <GenAI_Model>  (1) 
Pocket2Mol

>  <Protein>  (1) 
generic_title2

$$$$
Pocket2Mol_33
     RDKit          3D

  0  0  0  0  0  0  0  0  0  0999 V3000
M  V30 BEGIN CTAB
M  V30 COUNTS 21 22 0 0 1
M  V30 BEGIN ATOM
M  V30 1 C 9.660506 8.351519 -6.644346 0
M  V30 2 O 9.633691 8.563160 -8.044282 0
M  V30 3 C 10.498155 7.624631 -8.672080 0 CFG=2
M  V30 4 C 11.844899 8.308903 -8.964314 0
M  V30 5 C 9.825761 7.045965 -9.911927 0
M  V30 6 C 9.708790 6.837749 -6.521602 0
M  V30 7 C 9.150700 5.774960 -9.397731 0
M  V30 8 C 10.575410 6.435485 -7.702477 0 CFG=1
M  V30 9 O 10.029462 5.311237 -8.384996 0
M  V30 10 H 8.784151 8.788725 -6.164717 0
M  V30 11 H 10.554184 8.809345 -6.218178 0
M  V30 12 H 12.550332 7.618441 -9.426265 0
M  V30 13 H 11.714077 9.153239 -9.641822 0
M  V30 14 H 12.304160 8.687607 -8.050954 0
M  V30 15 H 10.575406 6.786101 -10.658825 0
M  V30 16 H 9.121750 7.735058 -10.380717 0
M  V30 17 H 8.699997 6.435925 -6.628913 0
M  V30 18 H 10.103610 6.496303 -5.564628 0
M  V30 19 H 9.011260 5.027284 -10.178517 0
M  V30 20 H 8.175337 5.989894 -8.958734 0
M  V30 21 H 11.595190 6.233202 -7.374619 0
M  V30 END ATOM
M  V30 BEGIN BOND
M  V30 1 1 2 1
M  V30 2 1 3 2
M  V30 3 1 3 4 CFG=3
M  V30 4 1 5 3
M  V30 5 1 6 1
M  V30 6 1 7 5
M  V30 7 1 8 3
M  V30 8 1 8 6
M  V30 9 1 9 7
M  V30 10 1 9 8
M  V30 11 1 10 1
M  V30 12 1 11 1
M  V30 13 1 12 4
M  V30 14 1 13 4
M  V30 15 1 14 4
M  V30 16 1 15 5
M  V30 17 1 16 5
M  V30 18 1 17 6
M  V30 19 1 18 6
M  V30 20 1 19 7
M  V30 21 1 20 7
M  V30 22 1 8 21 CFG=1
M  V30 END BOND
M  V30 END CTAB
M  END
>  <i_epik_Tot_Q>  (1) 
0

>  <i_epik_Tot_abs_Q>  (1) 
0

>  <i_i_glide_confnum>  (1) 
2

>  <i_i_glide_lignum>  (1) 
37

>  <i_i_glide_posenum>  (1) 
390

>  <i_i_glide_rotatable_bonds>  (1) 
0

>  <i_lp_mmshare_version>  (1) 
72125

>  <i_m_source_file_index>  (1) 
34

>  <i_f3d_flags>  (1) 
0

>  <num_sample>  (1) 
50

>  <b_lp_Chiralities_Consistent>  (1) 
1

>  <r_epik_Charging_Adjusted_Penalty>  (1) 
0

>  <r_epik_Ionization_Penalty>  (1) 
2.529470820146915e-12

>  <r_epik_Ionization_Penalty_Charging>  (1) 
0

>  <r_epik_Ionization_Penalty_Neutral>  (1) 
2.529470820146915e-12

>  <r_epik_State_Penalty>  (1) 
-0

>  <r_glide_ring_energy>  (1) 
0.058801660810398726

>  <r_i_docking_score>  (1) 
-4.181822430145278

>  <r_i_glide_ecoul>  (1) 
0.13667775394697201

>  <r_i_glide_eff_state_penalty>  (1) 
-0

>  <r_i_glide_einternal>  (1) 
0

>  <r_i_glide_emodel>  (1) 
-22.196560717450687

>  <r_i_glide_emodel_strain>  (1) 
0

>  <r_i_glide_energy>  (1) 
-17.48489833368863

>  <r_i_glide_erotb>  (1) 
0

>  <r_i_glide_esite>  (1) 
0

>  <r_i_glide_evdw>  (1) 
-17.621576087635603

>  <r_i_glide_gscore>  (1) 
-4.181822430145278

>  <r_i_glide_gscore_strain>  (1) 
0

>  <r_i_glide_hbond>  (1) 
0

>  <r_i_glide_ligand_efficiency>  (1) 
-0.46464693668280865

>  <r_i_glide_ligand_efficiency_ln>  (1) 
-1.3079539234711439

>  <r_i_glide_ligand_efficiency_sa>  (1) 
-0.9665045764245328

>  <r_i_glide_lipo>  (1) 
-0.42425229558185512

>  <r_i_glide_metal>  (1) 
-0

>  <r_i_glide_rewards>  (1) 
-2.8969929932736878

>  <r_lp_Energy>  (1) 
-0.369228

>  <r_lp_tautomer_probability>  (1) 
1

>  <s_epik_cmdline>  (1) 
J2VwaWtfcHl0aG9uJywgJy1waHQnLCAnMS4wJywgJy1waCcsICc3LjQnLCAnLXRuJywgJzgnLCAnLW1hJywgJzUwMCcsICctaW1hZScsICc8aW5maWxlLm1hZT4nLCAnLW9tYWUnLCAnPG91dGZpbGUubWFlPic=

>  <s_epik_input>  (1) 
TzFbQ0gyXVtDSDJdW0NASF0oW0NAXTEyW0NIM10pT1tDSDJdW0NIMl0y

>  <s_glide_docking_method>  (1) 
confgen

>  <s_i_glide_gridfile>  (1) 
gpcr_drd2_6luq_protein_autoprepared_prepared

>  <s_lp_Force_Field>  (1) 
S-OPLS

>  <s_lp_Variant>  (1) 
Pocket2Mol_33-1

>  <s_m_source_file>  (1) 
generated_generic_title2_ligand_Pocket2Mol_2026-06-23_prepared.sdf

>  <GenAI_Model>  (1) 
Pocket2Mol

>  <Protein>  (1) 
generic_title2

$$$$
Pocket2Mol_8
     RDKit          3D

  0  0  0  0  0  0  0  0  0  0999 V3000
M  V30 BEGIN CTAB
M  V30 COUNTS 13 13 0 0 1
M  V30 BEGIN ATOM
M  V30 1 N 9.375411 7.803708 -9.246349 0 CHG=1
M  V30 2 C 10.170802 8.049147 -8.157935 0
M  V30 3 C 11.470071 8.087625 -8.611207 0
M  V30 4 C 10.127396 7.692429 -10.343835 0
M  V30 5 C 12.756083 8.311555 -7.903039 0
M  V30 6 N 11.396184 7.863292 -9.965033 0
M  V30 7 H 9.761778 8.175480 -7.165784 0
M  V30 8 H 9.774150 7.501943 -11.344123 0
M  V30 9 H 12.575304 8.470886 -6.839867 0
M  V30 10 H 13.409975 7.457261 -8.016886 0
M  V30 11 H 13.265921 9.177975 -8.304942 0
M  V30 12 H 12.190287 7.830148 -10.591036 0
M  V30 13 H 8.327959 7.718401 -9.221268 0
M  V30 END ATOM
M  V30 BEGIN BOND
M  V30 1 1 2 1
M  V30 2 2 3 2
M  V30 3 2 4 1
M  V30 4 1 5 3
M  V30 5 1 6 3
M  V30 6 1 6 4
M  V30 7 1 7 2
M  V30 8 1 8 4
M  V30 9 1 9 5
M  V30 10 1 10 5
M  V30 11 1 11 5
M  V30 12 1 12 6
M  V30 13 1 13 1
M  V30 END BOND
M  V30 END CTAB
M  END
>  <i_epik_Tot_Q>  (1) 
1

>  <i_epik_Tot_abs_Q>  (1) 
1

>  <i_i_glide_confnum>  (1) 
1

>  <i_i_glide_lignum>  (1) 
10

>  <i_i_glide_posenum>  (1) 
147

>  <i_i_glide_rotatable_bonds>  (1) 
0

>  <i_lp_mmshare_version>  (1) 
72125

>  <i_m_source_file_index>  (1) 
9

>  <i_f3d_flags>  (1) 
0

>  <num_sample>  (1) 
50

>  <b_lp_Chiralities_Consistent>  (1) 
1

>  <r_epik_Charging_Adjusted_Penalty>  (1) 
0.63910500234431922

>  <r_epik_Ionization_Penalty>  (1) 
0.82018112513013652

>  <r_epik_Ionization_Penalty_Charging>  (1) 
0

>  <r_epik_Ionization_Penalty_Neutral>  (1) 
0.82018112513013652

>  <r_epik_State_Penalty>  (1) 
0.63910500234431922

>  <r_glide_ring_energy>  (1) 
0

>  <r_i_docking_score>  (1) 
-4.1777823105628542

>  <r_i_glide_ecoul>  (1) 
-10.614931963727493

>  <r_i_glide_eff_state_penalty>  (1) 
0.63910500234431922

>  <r_i_glide_einternal>  (1) 
0

>  <r_i_glide_emodel>  (1) 
-25.158629821562521

>  <r_i_glide_emodel_strain>  (1) 
0

>  <r_i_glide_energy>  (1) 
-16.184605424988348

>  <r_i_glide_erotb>  (1) 
0

>  <r_i_glide_esite>  (1) 
-0.1652377664574782

>  <r_i_glide_evdw>  (1) 
-5.5696734612608561

>  <r_i_glide_gscore>  (1) 
-4.8168873129071734

>  <r_i_glide_gscore_strain>  (1) 
0

>  <r_i_glide_hbond>  (1) 
-0.13311196885833093

>  <r_i_glide_ligand_efficiency>  (1) 
-0.69629705176047574

>  <r_i_glide_ligand_efficiency_ln>  (1) 
-1.4964692899270604

>  <r_i_glide_ligand_efficiency_sa>  (1) 
-1.2652557114822667

>  <r_i_glide_lipo>  (1) 
-0.39781410996919836

>  <r_i_glide_metal>  (1) 
-0

>  <r_i_glide_rewards>  (1) 
-2.25

>  <r_lp_Energy>  (1) 
7.4764169999999996

>  <r_lp_tautomer_probability>  (1) 
1

>  <s_epik_cmdline>  (1) 
J2VwaWtfcHl0aG9uJywgJy1waHQnLCAnMS4wJywgJy1waCcsICc3LjQnLCAnLXRuJywgJzgnLCAnLW1hJywgJzUwMCcsICctaW1hZScsICc8aW5maWxlLm1hZT4nLCAnLW9tYWUnLCAnPG91dGZpbGUubWFlPic=

>  <s_epik_input>  (1) 
W25IXTFbY0hdbltjSF1jMVtDSDNd

>  <s_glide_docking_method>  (1) 
confgen

>  <s_i_glide_gridfile>  (1) 
gpcr_drd2_6luq_protein_autoprepared_prepared

>  <s_lp_Force_Field>  (1) 
S-OPLS

>  <s_lp_Variant>  (1) 
Pocket2Mol_8-2

>  <s_m_source_file>  (1) 
generated_generic_title2_ligand_Pocket2Mol_2026-06-23_prepared.sdf

>  <GenAI_Model>  (1) 
Pocket2Mol

>  <Protein>  (1) 
generic_title2

$$$$
Pocket2Mol_5
     RDKit          3D

  0  0  0  0  0  0  0  0  0  0999 V3000
M  V30 BEGIN CTAB
M  V30 COUNTS 14 14 0 0 1
M  V30 BEGIN ATOM
M  V30 1 C 10.003970 7.407702 -8.054654 0
M  V30 2 O 10.774317 8.418798 -7.414769 0
M  V30 3 C 10.057354 7.618608 -9.579457 0
M  V30 4 O 11.412156 7.590348 -10.015920 0
M  V30 5 C 12.125198 8.390187 -7.854349 0
M  V30 6 C 12.175410 8.604024 -9.376623 0
M  V30 7 H 10.380495 6.419108 -7.786732 0
M  V30 8 H 8.975152 7.465346 -7.698945 0
M  V30 9 H 9.499549 6.832554 -10.088622 0
M  V30 10 H 9.591516 8.566783 -9.853326 0
M  V30 11 H 12.684250 9.171401 -7.339339 0
M  V30 12 H 12.580074 7.437154 -7.584994 0
M  V30 13 H 11.789798 9.589844 -9.640398 0
M  V30 14 H 13.204244 8.554718 -9.733713 0
M  V30 END ATOM
M  V30 BEGIN BOND
M  V30 1 1 2 1
M  V30 2 1 3 1
M  V30 3 1 4 3
M  V30 4 1 5 2
M  V30 5 1 6 4
M  V30 6 1 6 5
M  V30 7 1 7 1
M  V30 8 1 8 1
M  V30 9 1 9 3
M  V30 10 1 10 3
M  V30 11 1 11 5
M  V30 12 1 12 5
M  V30 13 1 13 6
M  V30 14 1 14 6
M  V30 END BOND
M  V30 END CTAB
M  END
>  <i_epik_Tot_Q>  (1) 
0

>  <i_epik_Tot_abs_Q>  (1) 
0

>  <i_i_glide_confnum>  (1) 
2

>  <i_i_glide_lignum>  (1) 
6

>  <i_i_glide_posenum>  (1) 
235

>  <i_i_glide_rotatable_bonds>  (1) 
0

>  <i_lp_mmshare_version>  (1) 
72125

>  <i_m_source_file_index>  (1) 
6

>  <i_f3d_flags>  (1) 
0

>  <num_sample>  (1) 
50

>  <b_lp_Chiralities_Consistent>  (1) 
1

>  <r_epik_Charging_Adjusted_Penalty>  (1) 
0

>  <r_epik_Ionization_Penalty>  (1) 
8.3894707547109138e-13

>  <r_epik_Ionization_Penalty_Charging>  (1) 
0

>  <r_epik_Ionization_Penalty_Neutral>  (1) 
8.3894707547109138e-13

>  <r_epik_State_Penalty>  (1) 
-0

>  <r_glide_ring_energy>  (1) 
0.00013676017923054334

>  <r_i_docking_score>  (1) 
-4.1771075459579663

>  <r_i_glide_ecoul>  (1) 
-1.3886614550400684

>  <r_i_glide_eff_state_penalty>  (1) 
-0

>  <r_i_glide_einternal>  (1) 
0

>  <r_i_glide_emodel>  (1) 
-17.912010144295387

>  <r_i_glide_emodel_strain>  (1) 
0

>  <r_i_glide_energy>  (1) 
-14.09131160946505

>  <r_i_glide_erotb>  (1) 
0

>  <r_i_glide_esite>  (1) 
0

>  <r_i_glide_evdw>  (1) 
-12.702650154424981

>  <r_i_glide_gscore>  (1) 
-4.1771075459579663

>  <r_i_glide_gscore_strain>  (1) 
0

>  <r_i_glide_hbond>  (1) 
0

>  <r_i_glide_ligand_efficiency>  (1) 
-0.69618459099299435

>  <r_i_glide_ligand_efficiency_ln>  (1) 
-1.4962275912376404

>  <r_i_glide_ligand_efficiency_sa>  (1) 
-1.2650513567057908

>  <r_i_glide_lipo>  (1) 
-0.61700915331403994

>  <r_i_glide_metal>  (1) 
-0

>  <r_i_glide_rewards>  (1) 
-2.7166666666666668

>  <r_lp_Energy>  (1) 
4.9648199999999996

>  <r_lp_tautomer_probability>  (1) 
1

>  <s_epik_cmdline>  (1) 
J2VwaWtfcHl0aG9uJywgJy1waHQnLCAnMS4wJywgJy1waCcsICc3LjQnLCAnLXRuJywgJzgnLCAnLW1hJywgJzUwMCcsICctaW1hZScsICc8aW5maWxlLm1hZT4nLCAnLW9tYWUnLCAnPG91dGZpbGUubWFlPic=

>  <s_epik_input>  (1) 
W0NIMl0xT1tDSDJdW0NIMl1PW0NIMl0x

>  <s_glide_docking_method>  (1) 
confgen

>  <s_i_glide_gridfile>  (1) 
gpcr_drd2_6luq_protein_autoprepared_prepared

>  <s_lp_Force_Field>  (1) 
S-OPLS

>  <s_lp_Variant>  (1) 
Pocket2Mol_5-1

>  <s_m_source_file>  (1) 
generated_generic_title2_ligand_Pocket2Mol_2026-06-23_prepared.sdf

>  <GenAI_Model>  (1) 
Pocket2Mol

>  <Protein>  (1) 
generic_title2

$$$$
Pocket2Mol_45
     RDKit          3D

  0  0  0  0  0  0  0  0  0  0999 V3000
M  V30 BEGIN CTAB
M  V30 COUNTS 13 13 0 0 1
M  V30 BEGIN ATOM
M  V30 1 O 11.375410 8.097098 -5.009942 0
M  V30 2 C 10.965073 6.790227 -5.409145 0
M  V30 3 C 10.417381 6.931064 -6.826549 0
M  V30 4 C 10.975410 9.054621 -5.985026 0
M  V30 5 C 9.910602 8.355309 -6.824360 0
M  V30 6 H 11.783795 6.073203 -5.350800 0
M  V30 7 H 10.178017 6.451413 -4.734058 0
M  V30 8 H 11.222500 6.819782 -7.554182 0
M  V30 9 H 9.641455 6.200348 -7.058561 0
M  V30 10 H 10.609207 9.970337 -5.520157 0
M  V30 11 H 11.838828 9.308998 -6.601245 0
M  V30 12 H 8.938031 8.404723 -6.331604 0
M  V30 13 H 9.806115 8.776218 -7.824852 0
M  V30 END ATOM
M  V30 BEGIN BOND
M  V30 1 1 2 1
M  V30 2 1 3 2
M  V30 3 1 4 1
M  V30 4 1 5 3
M  V30 5 1 5 4
M  V30 6 1 6 2
M  V30 7 1 7 2
M  V30 8 1 8 3
M  V30 9 1 9 3
M  V30 10 1 10 4
M  V30 11 1 11 4
M  V30 12 1 12 5
M  V30 13 1 13 5
M  V30 END BOND
M  V30 END CTAB
M  END
>  <i_epik_Tot_Q>  (1) 
0

>  <i_epik_Tot_abs_Q>  (1) 
0

>  <i_i_glide_confnum>  (1) 
4

>  <i_i_glide_lignum>  (1) 
51

>  <i_i_glide_posenum>  (1) 
5

>  <i_i_glide_rotatable_bonds>  (1) 
0

>  <i_lp_mmshare_version>  (1) 
72125

>  <i_m_source_file_index>  (1) 
46

>  <i_f3d_flags>  (1) 
0

>  <num_sample>  (1) 
50

>  <b_lp_Chiralities_Consistent>  (1) 
1

>  <r_epik_Charging_Adjusted_Penalty>  (1) 
0

>  <r_epik_Ionization_Penalty>  (1) 
1.3889264151150229e-11

>  <r_epik_Ionization_Penalty_Charging>  (1) 
0

>  <r_epik_Ionization_Penalty_Neutral>  (1) 
1.3889264151150229e-11

>  <r_epik_State_Penalty>  (1) 
-0

>  <r_glide_ring_energy>  (1) 
0.22164722245690596

>  <r_i_docking_score>  (1) 
-4.1751043487786195

>  <r_i_glide_ecoul>  (1) 
-0.7735012536230943

>  <r_i_glide_eff_state_penalty>  (1) 
-0

>  <r_i_glide_einternal>  (1) 
0

>  <r_i_glide_emodel>  (1) 
-17.609484354513256

>  <r_i_glide_emodel_strain>  (1) 
0

>  <r_i_glide_energy>  (1) 
-14.00074606713483

>  <r_i_glide_erotb>  (1) 
0

>  <r_i_glide_esite>  (1) 
0

>  <r_i_glide_evdw>  (1) 
-13.227244813511737

>  <r_i_glide_gscore>  (1) 
-4.1751043487786195

>  <r_i_glide_gscore_strain>  (1) 
0

>  <r_i_glide_hbond>  (1) 
0

>  <r_i_glide_ligand_efficiency>  (1) 
-0.83502086975572387

>  <r_i_glide_ligand_efficiency_ln>  (1) 
-1.6000014136699865

>  <r_i_glide_ligand_efficiency_sa>  (1) 
-1.4278656022553429

>  <r_i_glide_lipo>  (1) 
-0.91258829372910755

>  <r_i_glide_metal>  (1) 
-0

>  <r_i_glide_rewards>  (1) 
-2.4851286263304608

>  <r_lp_Energy>  (1) 
3.9173999999999998

>  <r_lp_tautomer_probability>  (1) 
1

>  <s_epik_cmdline>  (1) 
J2VwaWtfcHl0aG9uJywgJy1waHQnLCAnMS4wJywgJy1waCcsICc3LjQnLCAnLXRuJywgJzgnLCAnLW1hJywgJzUwMCcsICctaW1hZScsICc8aW5maWxlLm1hZT4nLCAnLW9tYWUnLCAnPG91dGZpbGUubWFlPic=

>  <s_epik_input>  (1) 
TzFbQ0gyXVtDSDJdW0NIMl1bQ0gyXTE=

>  <s_glide_docking_method>  (1) 
confgen

>  <s_i_glide_gridfile>  (1) 
gpcr_drd2_6luq_protein_autoprepared_prepared

>  <s_lp_Force_Field>  (1) 
S-OPLS

>  <s_lp_Variant>  (1) 
Pocket2Mol_45-1

>  <s_m_source_file>  (1) 
generated_generic_title2_ligand_Pocket2Mol_2026-06-23_prepared.sdf

>  <GenAI_Model>  (1) 
Pocket2Mol

>  <Protein>  (1) 
generic_title2

$$$$
Pocket2Mol_10
     RDKit          3D

  0  0  0  0  0  0  0  0  0  0999 V3000
M  V30 BEGIN CTAB
M  V30 COUNTS 14 13 0 0 1
M  V30 BEGIN ATOM
M  V30 1 N 8.975410 6.390227 -8.385027 0 CHG=1
M  V30 2 C 10.078010 7.123968 -9.039600 0
M  V30 3 C 8.853198 4.995711 -8.857920 0
M  V30 4 C 9.017305 6.489419 -6.910037 0
M  V30 5 H 11.046082 6.695580 -8.777929 0
M  V30 6 H 10.071077 8.172160 -8.738141 0
M  V30 7 H 9.968601 7.092950 -10.124284 0
M  V30 8 H 9.739197 4.412842 -8.602184 0
M  V30 9 H 7.982172 4.515031 -8.409717 0
M  V30 10 H 8.724877 4.966265 -9.940532 0
M  V30 11 H 9.922479 6.031570 -6.509009 0
M  V30 12 H 8.988573 7.533157 -6.594907 0
M  V30 13 H 8.156983 5.990226 -6.463469 0
M  V30 14 H 8.114025 6.866833 -8.676207 0
M  V30 END ATOM
M  V30 BEGIN BOND
M  V30 1 1 2 1
M  V30 2 1 3 1
M  V30 3 1 4 1
M  V30 4 1 5 2
M  V30 5 1 6 2
M  V30 6 1 7 2
M  V30 7 1 8 3
M  V30 8 1 9 3
M  V30 9 1 10 3
M  V30 10 1 11 4
M  V30 11 1 12 4
M  V30 12 1 13 4
M  V30 13 1 14 1
M  V30 END BOND
M  V30 END CTAB
M  END
>  <i_epik_Tot_Q>  (1) 
1

>  <i_epik_Tot_abs_Q>  (1) 
1

>  <i_i_glide_confnum>  (1) 
1

>  <i_i_glide_lignum>  (1) 
13

>  <i_i_glide_posenum>  (1) 
267

>  <i_i_glide_rotatable_bonds>  (1) 
0

>  <i_lp_mmshare_version>  (1) 
72125

>  <i_m_source_file_index>  (1) 
11

>  <i_f3d_flags>  (1) 
0

>  <num_sample>  (1) 
50

>  <b_lp_Chiralities_Consistent>  (1) 
1

>  <r_epik_Charging_Adjusted_Penalty>  (1) 
0.0093753769364623638

>  <r_epik_Ionization_Penalty>  (1) 
0.0046876884682311671

>  <r_epik_Ionization_Penalty_Charging>  (1) 
0.0046876884682311671

>  <r_epik_Ionization_Penalty_Neutral>  (1) 
0

>  <r_epik_State_Penalty>  (1) 
0.0046876884682311958

>  <r_glide_ring_energy>  (1) 
0

>  <r_i_docking_score>  (1) 
-4.1660825386076183

>  <r_i_glide_ecoul>  (1) 
-4.6946635344881074

>  <r_i_glide_eff_state_penalty>  (1) 
0.0046876884682311958

>  <r_i_glide_einternal>  (1) 
0

>  <r_i_glide_emodel>  (1) 
-18.6940708381352

>  <r_i_glide_emodel_strain>  (1) 
0

>  <r_i_glide_energy>  (1) 
-11.906796473033413

>  <r_i_glide_erotb>  (1) 
0

>  <r_i_glide_esite>  (1) 
-0.091763220393818984

>  <r_i_glide_evdw>  (1) 
-7.2121329385453068

>  <r_i_glide_gscore>  (1) 
-4.1707702270758498

>  <r_i_glide_gscore_strain>  (1) 
0

>  <r_i_glide_hbond>  (1) 
-0.23420082958154931

>  <r_i_glide_ligand_efficiency>  (1) 
-1.0415206346519046

>  <r_i_glide_ligand_efficiency_ln>  (1) 
-1.7458376495733203

>  <r_i_glide_ligand_efficiency_sa>  (1) 
-1.65331095109302

>  <r_i_glide_lipo>  (1) 
0

>  <r_i_glide_metal>  (1) 
-0

>  <r_i_glide_rewards>  (1) 
-2.7800000000000002

>  <r_lp_Energy>  (1) 
13.212527

>  <s_epik_cmdline>  (1) 
J2VwaWtfcHl0aG9uJywgJy1waHQnLCAnMS4wJywgJy1waCcsICc3LjQnLCAnLXRuJywgJzgnLCAnLW1hJywgJzUwMCcsICctaW1hZScsICc8aW5maWxlLm1hZT4nLCAnLW9tYWUnLCAnPG91dGZpbGUubWFlPic=

>  <s_epik_input>  (1) 
W0NIM11OKFtDSDNdKVtDSDNd

>  <s_glide_docking_method>  (1) 
confgen

>  <s_i_glide_gridfile>  (1) 
gpcr_drd2_6luq_protein_autoprepared_prepared

>  <s_lp_Force_Field>  (1) 
S-OPLS

>  <s_lp_Variant>  (1) 
Pocket2Mol_10-1

>  <s_m_source_file>  (1) 
generated_generic_title2_ligand_Pocket2Mol_2026-06-23_prepared.sdf

>  <GenAI_Model>  (1) 
Pocket2Mol

>  <Protein>  (1) 
generic_title2

$$$$
Pocket2Mol_32
     RDKit          3D

  0  0  0  0  0  0  0  0  0  0999 V3000
M  V30 BEGIN CTAB
M  V30 COUNTS 12 12 0 0 1
M  V30 BEGIN ATOM
M  V30 1 N 12.280764 8.789424 -3.280786 0
M  V30 2 C 11.840410 9.127792 -4.472757 0
M  V30 3 C 11.375410 8.132589 -5.139295 0
M  V30 4 C 11.437242 6.799285 -4.407674 0
M  V30 5 C 12.175439 7.341749 -3.020558 0
M  V30 6 H 11.911696 10.163296 -4.771864 0
M  V30 7 H 10.442592 6.389800 -4.224995 0
M  V30 8 H 12.038971 6.071565 -4.952263 0
M  V30 9 H 11.574076 7.144734 -2.133035 0
M  V30 10 H 13.166918 6.907810 -2.886659 0
M  V30 11 H 10.969099 8.205767 -6.138471 0
M  V30 12 H 12.797876 9.408717 -2.669587 0
M  V30 END ATOM
M  V30 BEGIN BOND
M  V30 1 1 2 1
M  V30 2 2 3 2
M  V30 3 1 4 3
M  V30 4 1 5 1
M  V30 5 1 5 4
M  V30 6 1 6 2
M  V30 7 1 7 4
M  V30 8 1 8 4
M  V30 9 1 9 5
M  V30 10 1 10 5
M  V30 11 1 11 3
M  V30 12 1 12 1
M  V30 END BOND
M  V30 END CTAB
M  END
>  <i_epik_Tot_Q>  (1) 
0

>  <i_epik_Tot_abs_Q>  (1) 
0

>  <i_i_glide_confnum>  (1) 
1

>  <i_i_glide_lignum>  (1) 
36

>  <i_i_glide_posenum>  (1) 
210

>  <i_i_glide_rotatable_bonds>  (1) 
0

>  <i_lp_mmshare_version>  (1) 
72125

>  <i_m_source_file_index>  (1) 
33

>  <i_f3d_flags>  (1) 
0

>  <num_sample>  (1) 
50

>  <b_lp_Chiralities_Consistent>  (1) 
1

>  <r_epik_Charging_Adjusted_Penalty>  (1) 
1.6042444336516156e-06

>  <r_epik_Ionization_Penalty>  (1) 
0.0023556498582944039

>  <r_epik_Ionization_Penalty_Charging>  (1) 
1.6042444336516156e-06

>  <r_epik_Ionization_Penalty_Neutral>  (1) 
0.0023540456138607521

>  <r_epik_State_Penalty>  (1) 
-0

>  <r_glide_ring_energy>  (1) 
0

>  <r_i_docking_score>  (1) 
-4.1658348942122698

>  <r_i_glide_ecoul>  (1) 
-1.2225162091275485

>  <r_i_glide_eff_state_penalty>  (1) 
-0

>  <r_i_glide_einternal>  (1) 
0

>  <r_i_glide_emodel>  (1) 
-17.88787846073085

>  <r_i_glide_emodel_strain>  (1) 
1.6648016298859147e-11

>  <r_i_glide_energy>  (1) 
-13.730990269363712

>  <r_i_glide_erotb>  (1) 
0

>  <r_i_glide_esite>  (1) 
0

>  <r_i_glide_evdw>  (1) 
-12.508474060236164

>  <r_i_glide_gscore>  (1) 
-4.1658348942122698

>  <r_i_glide_gscore_strain>  (1) 
0

>  <r_i_glide_hbond>  (1) 
0

>  <r_i_glide_ligand_efficiency>  (1) 
-0.83316697884245394

>  <r_i_glide_ligand_efficiency_ln>  (1) 
-1.5964491334941755

>  <r_i_glide_ligand_efficiency_sa>  (1) 
-1.4246954933858889

>  <r_i_glide_lipo>  (1) 
-1.1070337598313293

>  <r_i_glide_metal>  (1) 
-0

>  <r_i_glide_rewards>  (1) 
-2.25

>  <r_lp_Energy>  (1) 
2.9163329999999998

>  <r_lp_tautomer_probability>  (1) 
1

>  <s_epik_Chemistry_Notes>  (1) 
This compound has an imine and may undergo hydrolysis.

>  <s_epik_cmdline>  (1) 
J2VwaWtfcHl0aG9uJywgJy1waHQnLCAnMS4wJywgJy1waCcsICc3LjQnLCAnLXRuJywgJzgnLCAnLW1hJywgJzUwMCcsICctaW1hZScsICc8aW5maWxlLm1hZT4nLCAnLW9tYWUnLCAnPG91dGZpbGUubWFlPic=

>  <s_epik_input>  (1) 
W05IXTFbQ0hdPVtDSF1bQ0gyXVtDSDJdMQ==

>  <s_glide_docking_method>  (1) 
confgen

>  <s_i_glide_gridfile>  (1) 
gpcr_drd2_6luq_protein_autoprepared_prepared

>  <s_lp_Force_Field>  (1) 
S-OPLS

>  <s_lp_Variant>  (1) 
Pocket2Mol_32-1

>  <s_m_source_file>  (1) 
generated_generic_title2_ligand_Pocket2Mol_2026-06-23_prepared.sdf

>  <GenAI_Model>  (1) 
Pocket2Mol

>  <Protein>  (1) 
generic_title2

$$$$
Pocket2Mol_21
     RDKit          3D

  0  0  0  0  0  0  0  0  0  0999 V3000
M  V30 BEGIN CTAB
M  V30 COUNTS 9 9 0 0 1
M  V30 BEGIN ATOM
M  V30 1 C 12.175416 7.574160 -3.234379 0
M  V30 2 O 11.614803 7.059601 -4.371085 0
M  V30 3 C 11.375412 8.132127 -5.185025 0
M  V30 4 C 12.293725 8.931316 -3.320953 0
M  V30 5 C 11.775354 9.294298 -4.589899 0
M  V30 6 H 12.426441 6.847519 -2.475601 0
M  V30 7 H 10.922739 7.894068 -6.137330 0
M  V30 8 H 12.702751 9.581851 -2.561774 0
M  V30 9 H 11.700064 10.284113 -5.015814 0
M  V30 END ATOM
M  V30 BEGIN BOND
M  V30 1 1 2 1
M  V30 2 1 3 2
M  V30 3 2 4 1
M  V30 4 2 5 3
M  V30 5 1 5 4
M  V30 6 1 6 1
M  V30 7 1 7 3
M  V30 8 1 8 4
M  V30 9 1 9 5
M  V30 END BOND
M  V30 END CTAB
M  END
>  <i_epik_Tot_Q>  (1) 
0

>  <i_epik_Tot_abs_Q>  (1) 
0

>  <i_i_glide_confnum>  (1) 
1

>  <i_i_glide_lignum>  (1) 
25

>  <i_i_glide_posenum>  (1) 
347

>  <i_i_glide_rotatable_bonds>  (1) 
0

>  <i_lp_mmshare_version>  (1) 
72125

>  <i_m_source_file_index>  (1) 
22

>  <i_f3d_flags>  (1) 
0

>  <num_sample>  (1) 
50

>  <b_lp_Chiralities_Consistent>  (1) 
1

>  <r_epik_Charging_Adjusted_Penalty>  (1) 
0

>  <r_epik_Ionization_Penalty>  (1) 
0

>  <r_epik_Ionization_Penalty_Charging>  (1) 
0

>  <r_epik_Ionization_Penalty_Neutral>  (1) 
0

>  <r_epik_State_Penalty>  (1) 
-0

>  <r_glide_ring_energy>  (1) 
0

>  <r_i_docking_score>  (1) 
-4.1599114518665186

>  <r_i_glide_ecoul>  (1) 
-0.51438449656169993

>  <r_i_glide_eff_state_penalty>  (1) 
-0

>  <r_i_glide_einternal>  (1) 
0

>  <r_i_glide_emodel>  (1) 
-15.209907857455747

>  <r_i_glide_emodel_strain>  (1) 
0

>  <r_i_glide_energy>  (1) 
-11.996099583587695

>  <r_i_glide_erotb>  (1) 
0

>  <r_i_glide_esite>  (1) 
0

>  <r_i_glide_evdw>  (1) 
-11.481715087025995

>  <r_i_glide_gscore>  (1) 
-4.1599114518665186

>  <r_i_glide_gscore_strain>  (1) 
0

>  <r_i_glide_hbond>  (1) 
0

>  <r_i_glide_ligand_efficiency>  (1) 
-0.83198229037330373

>  <r_i_glide_ligand_efficiency_ln>  (1) 
-1.594179126487101

>  <r_i_glide_ligand_efficiency_sa>  (1) 
-1.4226697045993366

>  <r_i_glide_lipo>  (1) 
-1.2036980235013039

>  <r_i_glide_metal>  (1) 
-0

>  <r_i_glide_rewards>  (1) 
-2.3049699995296593

>  <r_lp_Energy>  (1) 
2.5980879999999997

>  <r_lp_tautomer_probability>  (1) 
1

>  <s_epik_cmdline>  (1) 
J2VwaWtfcHl0aG9uJywgJy1waHQnLCAnMS4wJywgJy1waCcsICc3LjQnLCAnLXRuJywgJzgnLCAnLW1hJywgJzUwMCcsICctaW1hZScsICc8aW5maWxlLm1hZT4nLCAnLW9tYWUnLCAnPG91dGZpbGUubWFlPic=

>  <s_epik_input>  (1) 
W2NIXTFvW2NIXVtjSF1bY0hdMQ==

>  <s_glide_docking_method>  (1) 
confgen

>  <s_i_glide_gridfile>  (1) 
gpcr_drd2_6luq_protein_autoprepared_prepared

>  <s_lp_Force_Field>  (1) 
S-OPLS

>  <s_lp_Variant>  (1) 
Pocket2Mol_21-1

>  <s_m_source_file>  (1) 
generated_generic_title2_ligand_Pocket2Mol_2026-06-23_prepared.sdf

>  <GenAI_Model>  (1) 
Pocket2Mol

>  <Protein>  (1) 
generic_title2

$$$$
Pocket2Mol_0
     RDKit          3D

  0  0  0  0  0  0  0  0  0  0999 V3000
M  V30 BEGIN CTAB
M  V30 COUNTS 10 10 0 0 1
M  V30 BEGIN ATOM
M  V30 1 N 11.356076 8.066579 -5.468126 0
M  V30 2 C 10.601339 8.790229 -6.342351 0
M  V30 3 C 9.775396 8.094935 -7.062397 0
M  V30 4 C 10.897610 6.877328 -5.742840 0
M  V30 5 C 9.775535 6.648236 -6.832464 0
M  V30 6 H 10.725146 9.862390 -6.385024 0
M  V30 7 H 9.111269 8.530920 -7.796260 0
M  V30 8 H 11.260093 5.978873 -5.238288 0
M  V30 9 H 10.124212 6.067533 -7.686453 0
M  V30 10 H 8.841255 6.277767 -6.409091 0
M  V30 END ATOM
M  V30 BEGIN BOND
M  V30 1 1 2 1
M  V30 2 2 3 2
M  V30 3 2 4 1
M  V30 4 1 5 3
M  V30 5 1 5 4
M  V30 6 1 6 2
M  V30 7 1 7 3
M  V30 8 1 8 4
M  V30 9 1 9 5
M  V30 10 1 10 5
M  V30 END BOND
M  V30 END CTAB
M  END
>  <i_epik_Tot_Q>  (1) 
0

>  <i_epik_Tot_abs_Q>  (1) 
0

>  <i_i_glide_confnum>  (1) 
1

>  <i_i_glide_lignum>  (1) 
1

>  <i_i_glide_posenum>  (1) 
42

>  <i_i_glide_rotatable_bonds>  (1) 
0

>  <i_lp_mmshare_version>  (1) 
72125

>  <i_m_source_file_index>  (1) 
1

>  <i_f3d_flags>  (1) 
0

>  <num_sample>  (1) 
50

>  <b_lp_Chiralities_Consistent>  (1) 
1

>  <r_epik_Charging_Adjusted_Penalty>  (1) 
0

>  <r_epik_Ionization_Penalty>  (1) 
0

>  <r_epik_Ionization_Penalty_Charging>  (1) 
0

>  <r_epik_Ionization_Penalty_Neutral>  (1) 
0

>  <r_epik_State_Penalty>  (1) 
-0

>  <r_glide_ring_energy>  (1) 
0

>  <r_i_docking_score>  (1) 
-4.1593559995567411

>  <r_i_glide_ecoul>  (1) 
-1.482161890082567

>  <r_i_glide_eff_state_penalty>  (1) 
-0

>  <r_i_glide_einternal>  (1) 
0

>  <r_i_glide_emodel>  (1) 
-17.919424460710566

>  <r_i_glide_emodel_strain>  (1) 
0

>  <r_i_glide_energy>  (1) 
-14.000724540383761

>  <r_i_glide_erotb>  (1) 
0

>  <r_i_glide_esite>  (1) 
0

>  <r_i_glide_evdw>  (1) 
-12.518562650301194

>  <r_i_glide_gscore>  (1) 
-4.1593559995567411

>  <r_i_glide_gscore_strain>  (1) 
0

>  <r_i_glide_hbond>  (1) 
0

>  <r_i_glide_ligand_efficiency>  (1) 
-0.83187119991134817

>  <r_i_glide_ligand_efficiency_ln>  (1) 
-1.5939662636682039

>  <r_i_glide_ligand_efficiency_sa>  (1) 
-1.4224797425814875

>  <r_i_glide_lipo>  (1) 
-0.29653944081093492

>  <r_i_glide_metal>  (1) 
-0

>  <r_i_glide_rewards>  (1) 
-3.0145641427183616

>  <r_lp_Energy>  (1) 
-2.9532909999999997

>  <r_lp_tautomer_probability>  (1) 
1

>  <s_epik_Chemistry_Notes>  (1) 
This compound has an imine and may undergo hydrolysis.

>  <s_epik_cmdline>  (1) 
J2VwaWtfcHl0aG9uJywgJy1waHQnLCAnMS4wJywgJy1waCcsICc3LjQnLCAnLXRuJywgJzgnLCAnLW1hJywgJzUwMCcsICctaW1hZScsICc8aW5maWxlLm1hZT4nLCAnLW9tYWUnLCAnPG91dGZpbGUubWFlPic=

>  <s_epik_input>  (1) 
TjE9W0NIXVtDSDJdW0NIXT1bQ0hdMQ==

>  <s_glide_docking_method>  (1) 
confgen

>  <s_i_glide_gridfile>  (1) 
gpcr_drd2_6luq_protein_autoprepared_prepared

>  <s_lp_Force_Field>  (1) 
S-OPLS

>  <s_lp_Variant>  (1) 
Pocket2Mol_0-1

>  <s_m_source_file>  (1) 
generated_generic_title2_ligand_Pocket2Mol_2026-06-23_prepared.sdf

>  <GenAI_Model>  (1) 
Pocket2Mol

>  <Protein>  (1) 
generic_title2

$$$$
Pocket2Mol_19
     RDKit          3D

  0  0  0  0  0  0  0  0  0  0999 V3000
M  V30 BEGIN CTAB
M  V30 COUNTS 12 12 0 0 1
M  V30 BEGIN ATOM
M  V30 1 N 6.782003 6.751987 -11.586176 0 CHG=1
M  V30 2 C 6.060275 5.621547 -11.734609 0
M  V30 3 C 5.776784 5.139566 -13.026396 0
M  V30 4 C 7.256874 7.461506 -12.634431 0
M  V30 5 O 5.049939 3.999997 -13.185370 0 CHG=-1
M  V30 6 C 6.251928 5.846923 -14.149864 0
M  V30 7 C 7.002368 7.024434 -13.951550 0
M  V30 8 H 5.731553 5.136527 -10.826365 0
M  V30 9 H 7.821002 8.350089 -12.391837 0
M  V30 10 H 6.975345 7.084378 -10.636908 0
M  V30 11 H 6.042329 5.489183 -15.147825 0
M  V30 12 H 7.375151 7.580513 -14.798431 0
M  V30 END ATOM
M  V30 BEGIN BOND
M  V30 1 1 2 1
M  V30 2 2 3 2
M  V30 3 2 4 1
M  V30 4 1 5 3
M  V30 5 1 6 3
M  V30 6 1 7 4
M  V30 7 2 7 6
M  V30 8 1 8 2
M  V30 9 1 9 4
M  V30 10 1 10 1
M  V30 11 1 11 6
M  V30 12 1 12 7
M  V30 END BOND
M  V30 END CTAB
M  END
>  <i_epik_Tot_Q>  (1) 
0

>  <i_epik_Tot_abs_Q>  (1) 
2

>  <i_i_glide_confnum>  (1) 
1

>  <i_i_glide_lignum>  (1) 
22

>  <i_i_glide_posenum>  (1) 
252

>  <i_i_glide_rotatable_bonds>  (1) 
0

>  <i_lp_mmshare_version>  (1) 
72125

>  <i_m_source_file_index>  (1) 
20

>  <i_f3d_flags>  (1) 
0

>  <num_sample>  (1) 
50

>  <b_lp_Chiralities_Consistent>  (1) 
1

>  <r_epik_Charging_Adjusted_Penalty>  (1) 
0.36510749842979956

>  <r_epik_Ionization_Penalty>  (1) 
0.025180683492302028

>  <r_epik_Ionization_Penalty_Charging>  (1) 
0.025180683492302028

>  <r_epik_Ionization_Penalty_Neutral>  (1) 
0

>  <r_epik_State_Penalty>  (1) 
0.33992681493749755

>  <r_glide_ring_energy>  (1) 
0

>  <r_i_docking_score>  (1) 
-4.156657954999579

>  <r_i_glide_ecoul>  (1) 
-8.3566636828794643

>  <r_i_glide_eff_state_penalty>  (1) 
0.33992681493749755

>  <r_i_glide_einternal>  (1) 
0

>  <r_i_glide_emodel>  (1) 
-23.884442514042163

>  <r_i_glide_emodel_strain>  (1) 
0

>  <r_i_glide_energy>  (1) 
-15.437144144971631

>  <r_i_glide_erotb>  (1) 
0

>  <r_i_glide_esite>  (1) 
-0.10000000000000001

>  <r_i_glide_evdw>  (1) 
-7.0804804620921669

>  <r_i_glide_gscore>  (1) 
-4.4965847699370762

>  <r_i_glide_gscore_strain>  (1) 
0

>  <r_i_glide_hbond>  (1) 
-0.14638772691548968

>  <r_i_glide_ligand_efficiency>  (1) 
-0.59380827928565416

>  <r_i_glide_ligand_efficiency_ln>  (1) 
-1.4109927814100254

>  <r_i_glide_ligand_efficiency_sa>  (1) 
-1.1359143740339437

>  <r_i_glide_lipo>  (1) 
-0.39267346748505894

>  <r_i_glide_metal>  (1) 
-0

>  <r_i_glide_rewards>  (1) 
-2.25

>  <r_lp_Energy>  (1) 
9.275188

>  <r_lp_tautomer_probability>  (1) 
0.56342000000000003

>  <s_epik_cmdline>  (1) 
J2VwaWtfcHl0aG9uJywgJy1waHQnLCAnMS4wJywgJy1waCcsICc3LjQnLCAnLXRuJywgJzgnLCAnLW1hJywgJzUwMCcsICctaW1hZScsICc8aW5maWxlLm1hZT4nLCAnLW9tYWUnLCAnPG91dGZpbGUubWFlPic=

>  <s_epik_input>  (1) 
W2NIXTFbY0hdW2NIXW5bY0hdYzFbT0hd

>  <s_glide_docking_method>  (1) 
confgen

>  <s_i_glide_gridfile>  (1) 
gpcr_drd2_6luq_protein_autoprepared_prepared

>  <s_lp_Force_Field>  (1) 
S-OPLS

>  <s_lp_Variant>  (1) 
Pocket2Mol_19-1

>  <s_m_source_file>  (1) 
generated_generic_title2_ligand_Pocket2Mol_2026-06-23_prepared.sdf

>  <GenAI_Model>  (1) 
Pocket2Mol

>  <Protein>  (1) 
generic_title2

$$$$
Pocket2Mol_46
     RDKit          3D

  0  0  0  0  0  0  0  0  0  0999 V3000
M  V30 BEGIN CTAB
M  V30 COUNTS 8 8 0 0 1
M  V30 BEGIN ATOM
M  V30 1 N 11.367723 8.172942 -5.578823 0
M  V30 2 C 10.973485 6.803238 -5.816953 0
M  V30 3 C 10.051174 6.729145 -6.704017 0
M  V30 4 C 9.818234 7.975397 -7.057512 0
M  V30 5 C 10.601965 8.790363 -6.385418 0
M  V30 6 H 11.434127 5.990385 -5.273261 0
M  V30 7 H 9.557907 5.839694 -7.067943 0
M  V30 8 H 8.975411 8.277466 -7.665057 0
M  V30 END ATOM
M  V30 BEGIN BOND
M  V30 1 1 2 1
M  V30 2 2 3 2
M  V30 3 1 4 3
M  V30 4 2 5 1
M  V30 5 2 5 4
M  V30 6 1 6 2
M  V30 7 1 7 3
M  V30 8 1 8 4
M  V30 END BOND
M  V30 END CTAB
M  END
>  <i_epik_Tot_Q>  (1) 
0

>  <i_epik_Tot_abs_Q>  (1) 
0

>  <i_i_glide_confnum>  (1) 
1

>  <i_i_glide_lignum>  (1) 
52

>  <i_i_glide_posenum>  (1) 
56

>  <i_i_glide_rotatable_bonds>  (1) 
0

>  <i_lp_mmshare_version>  (1) 
72125

>  <i_m_source_file_index>  (1) 
47

>  <i_f3d_flags>  (1) 
0

>  <num_sample>  (1) 
50

>  <b_lp_Chiralities_Consistent>  (1) 
1

>  <r_epik_Charging_Adjusted_Penalty>  (1) 
0

>  <r_epik_Ionization_Penalty>  (1) 
0

>  <r_epik_Ionization_Penalty_Charging>  (1) 
0

>  <r_epik_Ionization_Penalty_Neutral>  (1) 
0

>  <r_epik_State_Penalty>  (1) 
-0

>  <r_glide_ring_energy>  (1) 
0

>  <r_i_docking_score>  (1) 
-4.1437834776335993

>  <r_i_glide_ecoul>  (1) 
-1.0065683918238801

>  <r_i_glide_eff_state_penalty>  (1) 
-0

>  <r_i_glide_einternal>  (1) 
0

>  <r_i_glide_emodel>  (1) 
-17.337926141972698

>  <r_i_glide_emodel_strain>  (1) 
0

>  <r_i_glide_energy>  (1) 
-13.607335510495826

>  <r_i_glide_erotb>  (1) 
0

>  <r_i_glide_esite>  (1) 
0

>  <r_i_glide_evdw>  (1) 
-12.600767118671946

>  <r_i_glide_gscore>  (1) 
-4.1437834776335993

>  <r_i_glide_gscore_strain>  (1) 
0

>  <r_i_glide_hbond>  (1) 
0

>  <r_i_glide_ligand_efficiency>  (1) 
-0.82875669552671982

>  <r_i_glide_ligand_efficiency_ln>  (1) 
-1.5879984949587289

>  <r_i_glide_ligand_efficiency_sa>  (1) 
-1.417154014997954

>  <r_i_glide_lipo>  (1) 
-0.76275986292642051

>  <r_i_glide_metal>  (1) 
-0

>  <r_i_glide_rewards>  (1) 
-2.6000000000000001

>  <r_lp_Energy>  (1) 
4.860805

>  <r_lp_tautomer_probability>  (1) 
1

>  <s_epik_Chemistry_Notes>  (1) 
This compound has an imine and may undergo hydrolysis.

>  <s_epik_cmdline>  (1) 
J2VwaWtfcHl0aG9uJywgJy1waHQnLCAnMS4wJywgJy1waCcsICc3LjQnLCAnLXRuJywgJzgnLCAnLW1hJywgJzUwMCcsICctaW1hZScsICc8aW5maWxlLm1hZT4nLCAnLW9tYWUnLCAnPG91dGZpbGUubWFlPic=

>  <s_epik_input>  (1) 
TjE9Qz1bQ0hdW0NIXT1bQ0hdMQ==

>  <s_glide_docking_method>  (1) 
confgen

>  <s_i_glide_gridfile>  (1) 
gpcr_drd2_6luq_protein_autoprepared_prepared

>  <s_lp_Force_Field>  (1) 
S-OPLS

>  <s_lp_Variant>  (1) 
Pocket2Mol_46-1

>  <s_m_source_file>  (1) 
generated_generic_title2_ligand_Pocket2Mol_2026-06-23_prepared.sdf

>  <GenAI_Model>  (1) 
Pocket2Mol

>  <Protein>  (1) 
generic_title2

$$$$
Pocket2Mol_3
     RDKit          3D

  0  0  0  0  0  0  0  0  0  0999 V3000
M  V30 BEGIN CTAB
M  V30 COUNTS 9 9 0 0 1
M  V30 BEGIN ATOM
M  V30 1 N 9.375411 7.479195 -8.292712 0
M  V30 2 C 9.555983 6.793486 -7.127244 0
M  V30 3 C 10.877261 6.888307 -6.805792 0
M  V30 4 C 11.428603 7.675295 -7.870134 0
M  V30 5 N 10.507927 8.032019 -8.773649 0
M  V30 6 H 8.472199 7.589668 -8.776756 0
M  V30 7 H 8.737824 6.299670 -6.624808 0
M  V30 8 H 11.378162 6.464178 -5.946412 0
M  V30 9 H 12.451148 7.991855 -8.013319 0
M  V30 END ATOM
M  V30 BEGIN BOND
M  V30 1 1 2 1
M  V30 2 2 3 2
M  V30 3 1 4 3
M  V30 4 1 5 1
M  V30 5 2 5 4
M  V30 6 1 6 1
M  V30 7 1 7 2
M  V30 8 1 8 3
M  V30 9 1 9 4
M  V30 END BOND
M  V30 END CTAB
M  END
>  <i_epik_Tot_Q>  (1) 
0

>  <i_epik_Tot_abs_Q>  (1) 
0

>  <i_i_glide_confnum>  (1) 
1

>  <i_i_glide_lignum>  (1) 
4

>  <i_i_glide_posenum>  (1) 
203

>  <i_i_glide_rotatable_bonds>  (1) 
0

>  <i_lp_mmshare_version>  (1) 
72125

>  <i_m_source_file_index>  (1) 
4

>  <i_f3d_flags>  (1) 
0

>  <num_sample>  (1) 
50

>  <b_lp_Chiralities_Consistent>  (1) 
1

>  <r_epik_Charging_Adjusted_Penalty>  (1) 
0

>  <r_epik_Ionization_Penalty>  (1) 
1.0045315435319e-05

>  <r_epik_Ionization_Penalty_Charging>  (1) 
0

>  <r_epik_Ionization_Penalty_Neutral>  (1) 
1.0045315435319e-05

>  <r_epik_State_Penalty>  (1) 
-0

>  <r_glide_ring_energy>  (1) 
0

>  <r_i_docking_score>  (1) 
-4.1423934509032172

>  <r_i_glide_ecoul>  (1) 
-4.9078608576842093

>  <r_i_glide_eff_state_penalty>  (1) 
-0

>  <r_i_glide_einternal>  (1) 
0

>  <r_i_glide_emodel>  (1) 
-19.09925252149619

>  <r_i_glide_emodel_strain>  (1) 
0

>  <r_i_glide_energy>  (1) 
-14.391944496147554

>  <r_i_glide_erotb>  (1) 
0

>  <r_i_glide_esite>  (1) 
-0.10000000000000001

>  <r_i_glide_evdw>  (1) 
-9.4840836384633445

>  <r_i_glide_gscore>  (1) 
-4.1423934509032172

>  <r_i_glide_gscore_strain>  (1) 
0

>  <r_i_glide_hbond>  (1) 
-0.16

>  <r_i_glide_ligand_efficiency>  (1) 
-0.82847869018064346

>  <r_i_glide_ligand_efficiency_ln>  (1) 
-1.5874658029472584

>  <r_i_glide_ligand_efficiency_sa>  (1) 
-1.4166786325431158

>  <r_i_glide_lipo>  (1) 
-0.42201014032741807

>  <r_i_glide_metal>  (1) 
-0

>  <r_i_glide_rewards>  (1) 
-2.25

>  <r_lp_Energy>  (1) 
2.3130189999999997

>  <r_lp_tautomer_probability>  (1) 
1

>  <s_epik_cmdline>  (1) 
J2VwaWtfcHl0aG9uJywgJy1waHQnLCAnMS4wJywgJy1waCcsICc3LjQnLCAnLXRuJywgJzgnLCAnLW1hJywgJzUwMCcsICctaW1hZScsICc8aW5maWxlLm1hZT4nLCAnLW9tYWUnLCAnPG91dGZpbGUubWFlPic=

>  <s_epik_input>  (1) 
W25IXTFbY0hdW2NIXVtjSF1uMQ==

>  <s_glide_docking_method>  (1) 
confgen

>  <s_i_glide_gridfile>  (1) 
gpcr_drd2_6luq_protein_autoprepared_prepared

>  <s_lp_Force_Field>  (1) 
S-OPLS

>  <s_lp_Variant>  (1) 
Pocket2Mol_3-1

>  <s_m_source_file>  (1) 
generated_generic_title2_ligand_Pocket2Mol_2026-06-23_prepared.sdf

>  <GenAI_Model>  (1) 
Pocket2Mol

>  <Protein>  (1) 
generic_title2

$$$$
Pocket2Mol_1
     RDKit          3D

  0  0  0  0  0  0  0  0  0  0999 V3000
M  V30 BEGIN CTAB
M  V30 COUNTS 10 10 0 0 1
M  V30 BEGIN ATOM
M  V30 1 N 9.775409 8.093228 -8.655190 0
M  V30 2 C 9.964042 8.044502 -7.297238 0
M  V30 3 C 11.302322 8.227429 -7.072456 0
M  V30 4 C 11.937208 8.390247 -8.348248 0
M  V30 5 C 10.964194 8.302203 -9.308074 0
M  V30 6 H 8.868059 7.990227 -9.114430 0
M  V30 7 H 9.134210 7.886012 -6.622203 0
M  V30 8 H 11.775406 8.242934 -6.102044 0
M  V30 9 H 12.988177 8.554446 -8.537573 0
M  V30 10 H 11.007923 8.369200 -10.385027 0
M  V30 END ATOM
M  V30 BEGIN BOND
M  V30 1 1 2 1
M  V30 2 2 3 2
M  V30 3 1 4 3
M  V30 4 1 5 1
M  V30 5 2 5 4
M  V30 6 1 6 1
M  V30 7 1 7 2
M  V30 8 1 8 3
M  V30 9 1 9 4
M  V30 10 1 10 5
M  V30 END BOND
M  V30 END CTAB
M  END
>  <i_epik_Tot_Q>  (1) 
0

>  <i_epik_Tot_abs_Q>  (1) 
0

>  <i_i_glide_confnum>  (1) 
1

>  <i_i_glide_lignum>  (1) 
2

>  <i_i_glide_posenum>  (1) 
166

>  <i_i_glide_rotatable_bonds>  (1) 
0

>  <i_lp_mmshare_version>  (1) 
72125

>  <i_m_source_file_index>  (1) 
2

>  <i_f3d_flags>  (1) 
0

>  <num_sample>  (1) 
50

>  <b_lp_Chiralities_Consistent>  (1) 
1

>  <r_epik_Charging_Adjusted_Penalty>  (1) 
0

>  <r_epik_Ionization_Penalty>  (1) 
4.7655302421719939e-09

>  <r_epik_Ionization_Penalty_Charging>  (1) 
0

>  <r_epik_Ionization_Penalty_Neutral>  (1) 
4.7655302421719939e-09

>  <r_epik_State_Penalty>  (1) 
-0

>  <r_glide_ring_energy>  (1) 
0

>  <r_i_docking_score>  (1) 
-4.1422173903177644

>  <r_i_glide_ecoul>  (1) 
-2.8999613391540051

>  <r_i_glide_eff_state_penalty>  (1) 
-0

>  <r_i_glide_einternal>  (1) 
0

>  <r_i_glide_emodel>  (1) 
-18.414018243451217

>  <r_i_glide_emodel_strain>  (1) 
0

>  <r_i_glide_energy>  (1) 
-14.05989590705364

>  <r_i_glide_erotb>  (1) 
0

>  <r_i_glide_esite>  (1) 
-0.10000000000000001

>  <r_i_glide_evdw>  (1) 
-11.159934567899635

>  <r_i_glide_gscore>  (1) 
-4.1422173903177644

>  <r_i_glide_gscore_strain>  (1) 
0

>  <r_i_glide_hbond>  (1) 
-0.16

>  <r_i_glide_ligand_efficiency>  (1) 
-0.8284434780635529

>  <r_i_glide_ligand_efficiency_ln>  (1) 
-1.5873983322538137

>  <r_i_glide_ligand_efficiency_sa>  (1) 
-1.4166184206698593

>  <r_i_glide_lipo>  (1) 
-0.63922646104968195

>  <r_i_glide_metal>  (1) 
-0

>  <r_i_glide_rewards>  (1) 
-2.25

>  <r_lp_Energy>  (1) 
2.9132020000000001

>  <r_lp_tautomer_probability>  (1) 
1

>  <s_epik_cmdline>  (1) 
J2VwaWtfcHl0aG9uJywgJy1waHQnLCAnMS4wJywgJy1waCcsICc3LjQnLCAnLXRuJywgJzgnLCAnLW1hJywgJzUwMCcsICctaW1hZScsICc8aW5maWxlLm1hZT4nLCAnLW9tYWUnLCAnPG91dGZpbGUubWFlPic=

>  <s_epik_input>  (1) 
W25IXTFbY0hdW2NIXVtjSF1bY0hdMQ==

>  <s_glide_docking_method>  (1) 
confgen

>  <s_i_glide_gridfile>  (1) 
gpcr_drd2_6luq_protein_autoprepared_prepared

>  <s_lp_Force_Field>  (1) 
S-OPLS

>  <s_lp_Variant>  (1) 
Pocket2Mol_1-1

>  <s_m_source_file>  (1) 
generated_generic_title2_ligand_Pocket2Mol_2026-06-23_prepared.sdf

>  <GenAI_Model>  (1) 
Pocket2Mol

>  <Protein>  (1) 
generic_title2

$$$$
Pocket2Mol_3
     RDKit          3D

  0  0  0  0  0  0  0  0  0  0999 V3000
M  V30 BEGIN CTAB
M  V30 COUNTS 9 9 0 0 1
M  V30 BEGIN ATOM
M  V30 1 N 9.375411 8.095937 -8.270948 0
M  V30 2 C 9.412700 8.001312 -6.913391 0
M  V30 3 C 10.707286 8.186157 -6.528249 0
M  V30 4 C 11.402356 8.388807 -7.766434 0
M  V30 5 N 10.583549 8.333719 -8.827618 0
M  V30 6 H 8.519935 7.996195 -8.842213 0
M  V30 7 H 8.524102 7.811175 -6.334997 0
M  V30 8 H 11.100990 8.174996 -5.521555 0
M  V30 9 H 12.458226 8.568522 -7.921898 0
M  V30 END ATOM
M  V30 BEGIN BOND
M  V30 1 1 2 1
M  V30 2 2 3 2
M  V30 3 1 4 3
M  V30 4 1 5 1
M  V30 5 2 5 4
M  V30 6 1 6 1
M  V30 7 1 7 2
M  V30 8 1 8 3
M  V30 9 1 9 4
M  V30 END BOND
M  V30 END CTAB
M  END
>  <i_epik_Tot_Q>  (1) 
0

>  <i_epik_Tot_abs_Q>  (1) 
0

>  <i_i_glide_confnum>  (1) 
1

>  <i_i_glide_lignum>  (1) 
4

>  <i_i_glide_posenum>  (1) 
385

>  <i_i_glide_rotatable_bonds>  (1) 
0

>  <i_lp_mmshare_version>  (1) 
72125

>  <i_m_source_file_index>  (1) 
4

>  <i_f3d_flags>  (1) 
0

>  <num_sample>  (1) 
50

>  <b_lp_Chiralities_Consistent>  (1) 
1

>  <r_epik_Charging_Adjusted_Penalty>  (1) 
0

>  <r_epik_Ionization_Penalty>  (1) 
1.0045315435319e-05

>  <r_epik_Ionization_Penalty_Charging>  (1) 
0

>  <r_epik_Ionization_Penalty_Neutral>  (1) 
1.0045315435319e-05

>  <r_epik_State_Penalty>  (1) 
-0

>  <r_glide_ring_energy>  (1) 
0

>  <r_i_docking_score>  (1) 
-4.1407098138150378

>  <r_i_glide_ecoul>  (1) 
-4.5580825912804981

>  <r_i_glide_eff_state_penalty>  (1) 
-0

>  <r_i_glide_einternal>  (1) 
0

>  <r_i_glide_emodel>  (1) 
-18.778157726850914

>  <r_i_glide_emodel_strain>  (1) 
0

>  <r_i_glide_energy>  (1) 
-14.072762942837485

>  <r_i_glide_erotb>  (1) 
0

>  <r_i_glide_esite>  (1) 
-0.10000000000000001

>  <r_i_glide_evdw>  (1) 
-9.5146803515569864

>  <r_i_glide_gscore>  (1) 
-4.1407098138150378

>  <r_i_glide_gscore_strain>  (1) 
0

>  <r_i_glide_hbond>  (1) 
-0.16

>  <r_i_glide_ligand_efficiency>  (1) 
-0.82814196276300756

>  <r_i_glide_ligand_efficiency_ln>  (1) 
-1.5868205923139045

>  <r_i_glide_ligand_efficiency_sa>  (1) 
-1.4161028367583719

>  <r_i_glide_lipo>  (1) 
-0.47126340754511359

>  <r_i_glide_metal>  (1) 
-0

>  <r_i_glide_rewards>  (1) 
-2.25

>  <r_lp_Energy>  (1) 
2.3130189999999997

>  <r_lp_tautomer_probability>  (1) 
1

>  <s_epik_cmdline>  (1) 
J2VwaWtfcHl0aG9uJywgJy1waHQnLCAnMS4wJywgJy1waCcsICc3LjQnLCAnLXRuJywgJzgnLCAnLW1hJywgJzUwMCcsICctaW1hZScsICc8aW5maWxlLm1hZT4nLCAnLW9tYWUnLCAnPG91dGZpbGUubWFlPic=

>  <s_epik_input>  (1) 
W25IXTFbY0hdW2NIXVtjSF1uMQ==

>  <s_glide_docking_method>  (1) 
confgen

>  <s_i_glide_gridfile>  (1) 
gpcr_drd2_6luq_protein_autoprepared_prepared

>  <s_lp_Force_Field>  (1) 
S-OPLS

>  <s_lp_Variant>  (1) 
Pocket2Mol_3-1

>  <s_m_source_file>  (1) 
generated_generic_title2_ligand_Pocket2Mol_2026-06-23_prepared.sdf

>  <GenAI_Model>  (1) 
Pocket2Mol

>  <Protein>  (1) 
generic_title2

$$$$
Pocket2Mol_21
     RDKit          3D

  0  0  0  0  0  0  0  0  0  0999 V3000
M  V30 BEGIN CTAB
M  V30 COUNTS 9 9 0 0 1
M  V30 BEGIN ATOM
M  V30 1 C 12.515389 8.427504 -2.337256 0
M  V30 2 O 12.227866 9.190227 -3.434909 0
M  V30 3 C 11.775410 8.318366 -4.385025 0
M  V30 4 C 12.253609 7.109009 -2.577790 0
M  V30 5 C 11.775410 7.037278 -3.910124 0
M  V30 6 H 12.890155 8.974251 -1.483572 0
M  V30 7 H 11.500045 8.767637 -5.328141 0
M  V30 8 H 12.391487 6.295851 -1.879698 0
M  V30 9 H 11.465591 6.157251 -4.455914 0
M  V30 END ATOM
M  V30 BEGIN BOND
M  V30 1 1 2 1
M  V30 2 1 3 2
M  V30 3 2 4 1
M  V30 4 2 5 3
M  V30 5 1 5 4
M  V30 6 1 6 1
M  V30 7 1 7 3
M  V30 8 1 8 4
M  V30 9 1 9 5
M  V30 END BOND
M  V30 END CTAB
M  END
>  <i_epik_Tot_Q>  (1) 
0

>  <i_epik_Tot_abs_Q>  (1) 
0

>  <i_i_glide_confnum>  (1) 
1

>  <i_i_glide_lignum>  (1) 
25

>  <i_i_glide_posenum>  (1) 
36

>  <i_i_glide_rotatable_bonds>  (1) 
0

>  <i_lp_mmshare_version>  (1) 
72125

>  <i_m_source_file_index>  (1) 
22

>  <i_f3d_flags>  (1) 
0

>  <num_sample>  (1) 
50

>  <b_lp_Chiralities_Consistent>  (1) 
1

>  <r_epik_Charging_Adjusted_Penalty>  (1) 
0

>  <r_epik_Ionization_Penalty>  (1) 
0

>  <r_epik_Ionization_Penalty_Charging>  (1) 
0

>  <r_epik_Ionization_Penalty_Neutral>  (1) 
0

>  <r_epik_State_Penalty>  (1) 
-0

>  <r_glide_ring_energy>  (1) 
0

>  <r_i_docking_score>  (1) 
-4.1279550716855473

>  <r_i_glide_ecoul>  (1) 
-0.98988572399766961

>  <r_i_glide_eff_state_penalty>  (1) 
-0

>  <r_i_glide_einternal>  (1) 
0

>  <r_i_glide_emodel>  (1) 
-16.00237004431952

>  <r_i_glide_emodel_strain>  (1) 
0

>  <r_i_glide_energy>  (1) 
-12.813250199572332

>  <r_i_glide_erotb>  (1) 
0

>  <r_i_glide_esite>  (1) 
0

>  <r_i_glide_evdw>  (1) 
-11.823364475574662

>  <r_i_glide_gscore>  (1) 
-4.1279550716855473

>  <r_i_glide_gscore_strain>  (1) 
0

>  <r_i_glide_hbond>  (1) 
0

>  <r_i_glide_ligand_efficiency>  (1) 
-0.82559101433710946

>  <r_i_glide_ligand_efficiency_ln>  (1) 
-1.5819326652746315

>  <r_i_glide_ligand_efficiency_sa>  (1) 
-1.4117407763088732

>  <r_i_glide_lipo>  (1) 
-1.02516724866932

>  <r_i_glide_metal>  (1) 
-0

>  <r_i_glide_rewards>  (1) 
-2.3631367406378438

>  <r_lp_Energy>  (1) 
2.5980879999999997

>  <r_lp_tautomer_probability>  (1) 
1

>  <s_epik_cmdline>  (1) 
J2VwaWtfcHl0aG9uJywgJy1waHQnLCAnMS4wJywgJy1waCcsICc3LjQnLCAnLXRuJywgJzgnLCAnLW1hJywgJzUwMCcsICctaW1hZScsICc8aW5maWxlLm1hZT4nLCAnLW9tYWUnLCAnPG91dGZpbGUubWFlPic=

>  <s_epik_input>  (1) 
W2NIXTFvW2NIXVtjSF1bY0hdMQ==

>  <s_glide_docking_method>  (1) 
confgen

>  <s_i_glide_gridfile>  (1) 
gpcr_drd2_6luq_protein_autoprepared_prepared

>  <s_lp_Force_Field>  (1) 
S-OPLS

>  <s_lp_Variant>  (1) 
Pocket2Mol_21-1

>  <s_m_source_file>  (1) 
generated_generic_title2_ligand_Pocket2Mol_2026-06-23_prepared.sdf

>  <GenAI_Model>  (1) 
Pocket2Mol

>  <Protein>  (1) 
generic_title2

$$$$
Pocket2Mol_47
     RDKit          3D

  0  0  0  0  0  0  0  0  0  0999 V3000
M  V30 BEGIN CTAB
M  V30 COUNTS 11 11 0 0 1
M  V30 BEGIN ATOM
M  V30 1 C 12.417102 8.552877 -2.298762 0
M  V30 2 O 12.141554 9.360490 -3.509675 0
M  V30 3 C 12.175246 6.988229 -2.559135 0
M  V30 4 C 11.775410 7.190192 -3.952352 0
M  V30 5 C 11.775410 8.410425 -4.385025 0
M  V30 6 H 11.775411 8.904227 -1.489703 0
M  V30 7 H 13.445025 8.733208 -1.983389 0
M  V30 8 H 11.364541 6.566912 -1.964001 0
M  V30 9 H 13.078141 6.385018 -2.473188 0
M  V30 10 H 11.498181 6.344651 -4.566054 0
M  V30 11 H 11.515929 8.774057 -5.368733 0
M  V30 END ATOM
M  V30 BEGIN BOND
M  V30 1 1 2 1
M  V30 2 1 3 1
M  V30 3 1 4 3
M  V30 4 1 5 2
M  V30 5 2 5 4
M  V30 6 1 6 1
M  V30 7 1 7 1
M  V30 8 1 8 3
M  V30 9 1 9 3
M  V30 10 1 10 4
M  V30 11 1 11 5
M  V30 END BOND
M  V30 END CTAB
M  END
>  <i_epik_Tot_Q>  (1) 
0

>  <i_epik_Tot_abs_Q>  (1) 
0

>  <i_i_glide_confnum>  (1) 
1

>  <i_i_glide_lignum>  (1) 
53

>  <i_i_glide_posenum>  (1) 
120

>  <i_i_glide_rotatable_bonds>  (1) 
0

>  <i_lp_mmshare_version>  (1) 
72125

>  <i_m_source_file_index>  (1) 
48

>  <i_f3d_flags>  (1) 
0

>  <num_sample>  (1) 
50

>  <b_lp_Chiralities_Consistent>  (1) 
1

>  <r_epik_Charging_Adjusted_Penalty>  (1) 
0

>  <r_epik_Ionization_Penalty>  (1) 
0

>  <r_epik_Ionization_Penalty_Charging>  (1) 
0

>  <r_epik_Ionization_Penalty_Neutral>  (1) 
0

>  <r_epik_State_Penalty>  (1) 
-0

>  <r_glide_ring_energy>  (1) 
0

>  <r_i_docking_score>  (1) 
-4.1086645240408153

>  <r_i_glide_ecoul>  (1) 
-0.71850067383342886

>  <r_i_glide_eff_state_penalty>  (1) 
-0

>  <r_i_glide_einternal>  (1) 
0

>  <r_i_glide_emodel>  (1) 
-16.868613203205669

>  <r_i_glide_emodel_strain>  (1) 
0

>  <r_i_glide_energy>  (1) 
-13.283490345372812

>  <r_i_glide_erotb>  (1) 
0

>  <r_i_glide_esite>  (1) 
0

>  <r_i_glide_evdw>  (1) 
-12.564989671539383

>  <r_i_glide_gscore>  (1) 
-4.1086645240408153

>  <r_i_glide_gscore_strain>  (1) 
0

>  <r_i_glide_hbond>  (1) 
0

>  <r_i_glide_ligand_efficiency>  (1) 
-0.82173290480816308

>  <r_i_glide_ligand_efficiency_ln>  (1) 
-1.5745400587853906

>  <r_i_glide_ligand_efficiency_sa>  (1) 
-1.4051435018147307

>  <r_i_glide_lipo>  (1) 
-1.0201836419782253

>  <r_i_glide_metal>  (1) 
-0

>  <r_i_glide_rewards>  (1) 
-2.3524562974106065

>  <r_lp_Energy>  (1) 
-3.1771669999999999

>  <r_lp_tautomer_probability>  (1) 
1

>  <s_epik_cmdline>  (1) 
J2VwaWtfcHl0aG9uJywgJy1waHQnLCAnMS4wJywgJy1waCcsICc3LjQnLCAnLXRuJywgJzgnLCAnLW1hJywgJzUwMCcsICctaW1hZScsICc8aW5maWxlLm1hZT4nLCAnLW9tYWUnLCAnPG91dGZpbGUubWFlPic=

>  <s_epik_input>  (1) 
W0NIMl0xT1tDSF09W0NIXVtDSDJdMQ==

>  <s_glide_docking_method>  (1) 
confgen

>  <s_i_glide_gridfile>  (1) 
gpcr_drd2_6luq_protein_autoprepared_prepared

>  <s_lp_Force_Field>  (1) 
S-OPLS

>  <s_lp_Variant>  (1) 
Pocket2Mol_47-1

>  <s_m_source_file>  (1) 
generated_generic_title2_ligand_Pocket2Mol_2026-06-23_prepared.sdf

>  <GenAI_Model>  (1) 
Pocket2Mol

>  <Protein>  (1) 
generic_title2

$$$$
Pocket2Mol_49
     RDKit          3D

  0  0  0  0  0  0  0  0  0  0999 V3000
M  V30 BEGIN CTAB
M  V30 COUNTS 11 11 0 0 1
M  V30 BEGIN ATOM
M  V30 1 O 11.775408 7.927967 -1.857614 0
M  V30 2 C 11.906114 6.691618 -2.518910 0
M  V30 3 C 11.775411 7.092567 -3.983657 0
M  V30 4 C 12.293802 8.880894 -2.713553 0
M  V30 5 O 12.420256 8.350380 -3.985219 0
M  V30 6 H 12.888778 6.266417 -2.306623 0
M  V30 7 H 11.137766 5.989691 -2.199442 0
M  V30 8 H 12.207437 6.375301 -4.675031 0
M  V30 9 H 10.739709 7.190229 -4.304366 0
M  V30 10 H 11.631850 9.747843 -2.734068 0
M  V30 11 H 13.280170 9.190200 -2.365752 0
M  V30 END ATOM
M  V30 BEGIN BOND
M  V30 1 1 2 1
M  V30 2 1 3 2
M  V30 3 1 4 1
M  V30 4 1 5 3
M  V30 5 1 5 4
M  V30 6 1 6 2
M  V30 7 1 7 2
M  V30 8 1 8 3
M  V30 9 1 9 3
M  V30 10 1 10 4
M  V30 11 1 11 4
M  V30 END BOND
M  V30 END CTAB
M  END
>  <i_epik_Tot_Q>  (1) 
0

>  <i_epik_Tot_abs_Q>  (1) 
0

>  <i_i_glide_confnum>  (1) 
3

>  <i_i_glide_lignum>  (1) 
55

>  <i_i_glide_posenum>  (1) 
252

>  <i_i_glide_rotatable_bonds>  (1) 
0

>  <i_lp_mmshare_version>  (1) 
72125

>  <i_m_source_file_index>  (1) 
50

>  <i_f3d_flags>  (1) 
0

>  <num_sample>  (1) 
50

>  <b_lp_Chiralities_Consistent>  (1) 
1

>  <r_epik_Charging_Adjusted_Penalty>  (1) 
0

>  <r_epik_Ionization_Penalty>  (1) 
7.9724310449397378e-14

>  <r_epik_Ionization_Penalty_Charging>  (1) 
0

>  <r_epik_Ionization_Penalty_Neutral>  (1) 
7.9724310449397378e-14

>  <r_epik_State_Penalty>  (1) 
-0

>  <r_glide_ring_energy>  (1) 
0.2805525668492585

>  <r_i_docking_score>  (1) 
-4.102541975109701

>  <r_i_glide_ecoul>  (1) 
-1.2983402535449742

>  <r_i_glide_eff_state_penalty>  (1) 
-0

>  <r_i_glide_einternal>  (1) 
0

>  <r_i_glide_emodel>  (1) 
-16.034362459082132

>  <r_i_glide_emodel_strain>  (1) 
0.00079650378259010779

>  <r_i_glide_energy>  (1) 
-12.485303757261461

>  <r_i_glide_erotb>  (1) 
0

>  <r_i_glide_esite>  (1) 
0

>  <r_i_glide_evdw>  (1) 
-11.186963503716486

>  <r_i_glide_gscore>  (1) 
-4.102541975109701

>  <r_i_glide_gscore_strain>  (1) 
0

>  <r_i_glide_hbond>  (1) 
0

>  <r_i_glide_ligand_efficiency>  (1) 
-0.82050839502194017

>  <r_i_glide_ligand_efficiency_ln>  (1) 
-1.5721937492978415

>  <r_i_glide_ligand_efficiency_sa>  (1) 
-1.4030496195338193

>  <r_i_glide_lipo>  (1) 
-0.50222801295323061

>  <r_i_glide_metal>  (1) 
-0

>  <r_i_glide_rewards>  (1) 
-2.8462147489389

>  <r_lp_Energy>  (1) 
-12.242958999999999

>  <r_lp_tautomer_probability>  (1) 
1

>  <s_epik_Chemistry_Notes>  (1) 
This compound contains an acetal/aminal-like group ( X-CH(R)-Y where X, Y are N, S, or O) that may be acid/base labile, releasing an aldehyde.

>  <s_epik_cmdline>  (1) 
J2VwaWtfcHl0aG9uJywgJy1waHQnLCAnMS4wJywgJy1waCcsICc3LjQnLCAnLXRuJywgJzgnLCAnLW1hJywgJzUwMCcsICctaW1hZScsICc8aW5maWxlLm1hZT4nLCAnLW9tYWUnLCAnPG91dGZpbGUubWFlPic=

>  <s_epik_input>  (1) 
TzFbQ0gyXVtDSDJdT1tDSDJdMQ==

>  <s_glide_docking_method>  (1) 
confgen

>  <s_i_glide_gridfile>  (1) 
gpcr_drd2_6luq_protein_autoprepared_prepared

>  <s_lp_Force_Field>  (1) 
S-OPLS

>  <s_lp_Variant>  (1) 
Pocket2Mol_49-1

>  <s_m_source_file>  (1) 
generated_generic_title2_ligand_Pocket2Mol_2026-06-23_prepared.sdf

>  <GenAI_Model>  (1) 
Pocket2Mol

>  <Protein>  (1) 
generic_title2

$$$$
Pocket2Mol_16
     RDKit          3D

  0  0  0  0  0  0  0  0  0  0999 V3000
M  V30 BEGIN CTAB
M  V30 COUNTS 12 12 0 0 1
M  V30 BEGIN ATOM
M  V30 1 N 10.922732 7.822221 -9.098683 0
M  V30 2 C 12.060967 8.390222 -8.560543 0
M  V30 3 C 12.155021 8.790228 -7.276173 0
M  V30 4 C 10.980102 8.621434 -6.379159 0
M  V30 5 O 11.005167 8.975383 -5.201757 0
M  V30 6 C 9.815741 7.643189 -8.291033 0
M  V30 7 C 9.775484 8.000990 -6.991220 0
M  V30 8 H 12.878397 8.488946 -9.260286 0
M  V30 9 H 13.058648 9.230155 -6.883017 0
M  V30 10 H 10.896760 7.542335 -10.069491 0
M  V30 11 H 8.975413 7.188871 -8.792731 0
M  V30 12 H 8.893005 7.848909 -6.386377 0
M  V30 END ATOM
M  V30 BEGIN BOND
M  V30 1 1 2 1
M  V30 2 2 3 2
M  V30 3 1 4 3
M  V30 4 2 5 4
M  V30 5 1 6 1
M  V30 6 1 7 4
M  V30 7 2 7 6
M  V30 8 1 8 2
M  V30 9 1 9 3
M  V30 10 1 10 1
M  V30 11 1 11 6
M  V30 12 1 12 7
M  V30 END BOND
M  V30 END CTAB
M  END
>  <i_epik_Tot_Q>  (1) 
0

>  <i_epik_Tot_abs_Q>  (1) 
0

>  <i_i_glide_confnum>  (1) 
1

>  <i_i_glide_lignum>  (1) 
19

>  <i_i_glide_posenum>  (1) 
174

>  <i_i_glide_rotatable_bonds>  (1) 
0

>  <i_lp_mmshare_version>  (1) 
72125

>  <i_m_source_file_index>  (1) 
17

>  <i_f3d_flags>  (1) 
0

>  <num_sample>  (1) 
50

>  <b_lp_Chiralities_Consistent>  (1) 
1

>  <r_epik_Charging_Adjusted_Penalty>  (1) 
0.00011828912318149299

>  <r_epik_Ionization_Penalty>  (1) 
0.00011828912318149299

>  <r_epik_Ionization_Penalty_Charging>  (1) 
0.00011828912318149299

>  <r_epik_Ionization_Penalty_Neutral>  (1) 
0

>  <r_epik_State_Penalty>  (1) 
-0

>  <r_glide_ring_energy>  (1) 
0

>  <r_i_docking_score>  (1) 
-4.0969007159525725

>  <r_i_glide_ecoul>  (1) 
-1.4897329418658016

>  <r_i_glide_eff_state_penalty>  (1) 
-0

>  <r_i_glide_einternal>  (1) 
0

>  <r_i_glide_emodel>  (1) 
-22.611241022269315

>  <r_i_glide_emodel_strain>  (1) 
0

>  <r_i_glide_energy>  (1) 
-17.523780040492198

>  <r_i_glide_erotb>  (1) 
0

>  <r_i_glide_esite>  (1) 
0

>  <r_i_glide_evdw>  (1) 
-16.034047098626395

>  <r_i_glide_gscore>  (1) 
-4.0969007159525725

>  <r_i_glide_gscore_strain>  (1) 
0

>  <r_i_glide_hbond>  (1) 
0

>  <r_i_glide_ligand_efficiency>  (1) 
-0.58527153085036754

>  <r_i_glide_ligand_efficiency_ln>  (1) 
-1.3907079675414933

>  <r_i_glide_ligand_efficiency_sa>  (1) 
-1.1195841617526003

>  <r_i_glide_lipo>  (1) 
-0.82173841974138251

>  <r_i_glide_metal>  (1) 
-0

>  <r_i_glide_rewards>  (1) 
-2.25

>  <r_lp_Energy>  (1) 
8.1847359999999991

>  <r_lp_tautomer_probability>  (1) 
1

>  <s_epik_cmdline>  (1) 
J2VwaWtfcHl0aG9uJywgJy1waHQnLCAnMS4wJywgJy1waCcsICc3LjQnLCAnLXRuJywgJzgnLCAnLW1hJywgJzUwMCcsICctaW1hZScsICc8aW5maWxlLm1hZT4nLCAnLW9tYWUnLCAnPG91dGZpbGUubWFlPic=

>  <s_epik_input>  (1) 
W2NIXTFbY0hdbltjSF1bY0hdYzFbT0hd

>  <s_glide_docking_method>  (1) 
confgen

>  <s_i_glide_gridfile>  (1) 
gpcr_drd2_6luq_protein_autoprepared_prepared

>  <s_lp_Force_Field>  (1) 
S-OPLS

>  <s_lp_Variant>  (1) 
Pocket2Mol_16-1

>  <s_m_source_file>  (1) 
generated_generic_title2_ligand_Pocket2Mol_2026-06-23_prepared.sdf

>  <GenAI_Model>  (1) 
Pocket2Mol

>  <Protein>  (1) 
generic_title2

$$$$
Pocket2Mol_5
     RDKit          3D

  0  0  0  0  0  0  0  0  0  0999 V3000
M  V30 BEGIN CTAB
M  V30 COUNTS 14 14 0 0 1
M  V30 BEGIN ATOM
M  V30 1 C 10.723572 8.180214 -8.789949 0
M  V30 2 O 10.445193 6.787794 -8.767167 0
M  V30 3 C 11.568916 8.532322 -7.553856 0
M  V30 4 O 10.855628 8.178904 -6.374847 0
M  V30 5 C 9.710686 6.433588 -7.601009 0
M  V30 6 C 10.544641 6.790228 -6.356773 0
M  V30 7 H 11.267547 8.421286 -9.703388 0
M  V30 8 H 9.794861 8.753614 -8.807411 0
M  V30 9 H 12.530809 8.018010 -7.585025 0
M  V30 10 H 11.775410 9.601066 -7.531725 0
M  V30 11 H 8.748838 6.948734 -7.585419 0
M  V30 12 H 9.499551 5.364384 -7.622974 0
M  V30 13 H 9.986175 6.560249 -5.449104 0
M  V30 14 H 11.462219 6.200196 -6.326163 0
M  V30 END ATOM
M  V30 BEGIN BOND
M  V30 1 1 2 1
M  V30 2 1 3 1
M  V30 3 1 4 3
M  V30 4 1 5 2
M  V30 5 1 6 4
M  V30 6 1 6 5
M  V30 7 1 7 1
M  V30 8 1 8 1
M  V30 9 1 9 3
M  V30 10 1 10 3
M  V30 11 1 11 5
M  V30 12 1 12 5
M  V30 13 1 13 6
M  V30 14 1 14 6
M  V30 END BOND
M  V30 END CTAB
M  END
>  <i_epik_Tot_Q>  (1) 
0

>  <i_epik_Tot_abs_Q>  (1) 
0

>  <i_i_glide_confnum>  (1) 
1

>  <i_i_glide_lignum>  (1) 
6

>  <i_i_glide_posenum>  (1) 
116

>  <i_i_glide_rotatable_bonds>  (1) 
0

>  <i_lp_mmshare_version>  (1) 
72125

>  <i_m_source_file_index>  (1) 
6

>  <i_f3d_flags>  (1) 
0

>  <num_sample>  (1) 
50

>  <b_lp_Chiralities_Consistent>  (1) 
1

>  <r_epik_Charging_Adjusted_Penalty>  (1) 
0

>  <r_epik_Ionization_Penalty>  (1) 
8.3894707547109138e-13

>  <r_epik_Ionization_Penalty_Charging>  (1) 
0

>  <r_epik_Ionization_Penalty_Neutral>  (1) 
8.3894707547109138e-13

>  <r_epik_State_Penalty>  (1) 
-0

>  <r_glide_ring_energy>  (1) 
0

>  <r_i_docking_score>  (1) 
-4.0933612126825896

>  <r_i_glide_ecoul>  (1) 
-0.5127321538118349

>  <r_i_glide_eff_state_penalty>  (1) 
-0

>  <r_i_glide_einternal>  (1) 
0

>  <r_i_glide_emodel>  (1) 
-17.906821508921524

>  <r_i_glide_emodel_strain>  (1) 
0

>  <r_i_glide_energy>  (1) 
-14.162723705415969

>  <r_i_glide_erotb>  (1) 
0

>  <r_i_glide_esite>  (1) 
0

>  <r_i_glide_evdw>  (1) 
-13.649991551604135

>  <r_i_glide_gscore>  (1) 
-4.0933612126825896

>  <r_i_glide_gscore_strain>  (1) 
0

>  <r_i_glide_hbond>  (1) 
0

>  <r_i_glide_ligand_efficiency>  (1) 
-0.68222686878043159

>  <r_i_glide_ligand_efficiency_ln>  (1) 
-1.466229901895681

>  <r_i_glide_ligand_efficiency_sa>  (1) 
-1.2396884922443123

>  <r_i_glide_lipo>  (1) 
-0.56728514536394148

>  <r_i_glide_metal>  (1) 
-0

>  <r_i_glide_rewards>  (1) 
-2.7666666666666666

>  <r_lp_Energy>  (1) 
4.9648199999999996

>  <r_lp_tautomer_probability>  (1) 
1

>  <s_epik_cmdline>  (1) 
J2VwaWtfcHl0aG9uJywgJy1waHQnLCAnMS4wJywgJy1waCcsICc3LjQnLCAnLXRuJywgJzgnLCAnLW1hJywgJzUwMCcsICctaW1hZScsICc8aW5maWxlLm1hZT4nLCAnLW9tYWUnLCAnPG91dGZpbGUubWFlPic=

>  <s_epik_input>  (1) 
W0NIMl0xT1tDSDJdW0NIMl1PW0NIMl0x

>  <s_glide_docking_method>  (1) 
confgen

>  <s_i_glide_gridfile>  (1) 
gpcr_drd2_6luq_protein_autoprepared_prepared

>  <s_lp_Force_Field>  (1) 
S-OPLS

>  <s_lp_Variant>  (1) 
Pocket2Mol_5-1

>  <s_m_source_file>  (1) 
generated_generic_title2_ligand_Pocket2Mol_2026-06-23_prepared.sdf

>  <GenAI_Model>  (1) 
Pocket2Mol

>  <Protein>  (1) 
generic_title2

$$$$
Pocket2Mol_3
     RDKit          3D

  0  0  0  0  0  0  0  0  0  0999 V3000
M  V30 BEGIN CTAB
M  V30 COUNTS 9 9 0 0 1
M  V30 BEGIN ATOM
M  V30 1 N 9.375412 7.790930 -7.509893 0
M  V30 2 C 9.954759 6.571551 -7.338192 0
M  V30 3 C 10.972975 6.735425 -6.448745 0
M  V30 4 C 10.924979 8.132224 -6.132903 0
M  V30 5 N 9.948826 8.767973 -6.784231 0
M  V30 6 H 8.581217 7.974808 -8.119429 0
M  V30 7 H 9.598906 5.693028 -7.856135 0
M  V30 8 H 11.646289 5.980642 -6.076970 0
M  V30 9 H 11.557543 8.695530 -5.460431 0
M  V30 END ATOM
M  V30 BEGIN BOND
M  V30 1 1 2 1
M  V30 2 2 3 2
M  V30 3 1 4 3
M  V30 4 1 5 1
M  V30 5 2 5 4
M  V30 6 1 6 1
M  V30 7 1 7 2
M  V30 8 1 8 3
M  V30 9 1 9 4
M  V30 END BOND
M  V30 END CTAB
M  END
>  <i_epik_Tot_Q>  (1) 
0

>  <i_epik_Tot_abs_Q>  (1) 
0

>  <i_i_glide_confnum>  (1) 
1

>  <i_i_glide_lignum>  (1) 
4

>  <i_i_glide_posenum>  (1) 
185

>  <i_i_glide_rotatable_bonds>  (1) 
0

>  <i_lp_mmshare_version>  (1) 
72125

>  <i_m_source_file_index>  (1) 
4

>  <i_f3d_flags>  (1) 
0

>  <num_sample>  (1) 
50

>  <b_lp_Chiralities_Consistent>  (1) 
1

>  <r_epik_Charging_Adjusted_Penalty>  (1) 
0

>  <r_epik_Ionization_Penalty>  (1) 
1.0045315435319e-05

>  <r_epik_Ionization_Penalty_Charging>  (1) 
0

>  <r_epik_Ionization_Penalty_Neutral>  (1) 
1.0045315435319e-05

>  <r_epik_State_Penalty>  (1) 
-0

>  <r_glide_ring_energy>  (1) 
0

>  <r_i_docking_score>  (1) 
-4.0824223141539058

>  <r_i_glide_ecoul>  (1) 
-2.5544923646287834

>  <r_i_glide_eff_state_penalty>  (1) 
-0

>  <r_i_glide_einternal>  (1) 
0

>  <r_i_glide_emodel>  (1) 
-18.473659024100073

>  <r_i_glide_emodel_strain>  (1) 
0

>  <r_i_glide_energy>  (1) 
-13.834500636552681

>  <r_i_glide_erotb>  (1) 
0

>  <r_i_glide_esite>  (1) 
-0.093906437469098117

>  <r_i_glide_evdw>  (1) 
-11.280008271923897

>  <r_i_glide_gscore>  (1) 
-4.0824223141539058

>  <r_i_glide_gscore_strain>  (1) 
0

>  <r_i_glide_hbond>  (1) 
-0.15199683052548693

>  <r_i_glide_ligand_efficiency>  (1) 
-0.81648446283078113

>  <r_i_glide_ligand_efficiency_ln>  (1) 
-1.5644834064458717

>  <r_i_glide_ligand_efficiency_sa>  (1) 
-1.3961687922758794

>  <r_i_glide_lipo>  (1) 
-0.63934477786880883

>  <r_i_glide_metal>  (1) 
-0

>  <r_i_glide_rewards>  (1) 
-2.25

>  <r_lp_Energy>  (1) 
2.3130189999999997

>  <r_lp_tautomer_probability>  (1) 
1

>  <s_epik_cmdline>  (1) 
J2VwaWtfcHl0aG9uJywgJy1waHQnLCAnMS4wJywgJy1waCcsICc3LjQnLCAnLXRuJywgJzgnLCAnLW1hJywgJzUwMCcsICctaW1hZScsICc8aW5maWxlLm1hZT4nLCAnLW9tYWUnLCAnPG91dGZpbGUubWFlPic=

>  <s_epik_input>  (1) 
W25IXTFbY0hdW2NIXVtjSF1uMQ==

>  <s_glide_docking_method>  (1) 
confgen

>  <s_i_glide_gridfile>  (1) 
gpcr_drd2_6luq_protein_autoprepared_prepared

>  <s_lp_Force_Field>  (1) 
S-OPLS

>  <s_lp_Variant>  (1) 
Pocket2Mol_3-1

>  <s_m_source_file>  (1) 
generated_generic_title2_ligand_Pocket2Mol_2026-06-23_prepared.sdf

>  <GenAI_Model>  (1) 
Pocket2Mol

>  <Protein>  (1) 
generic_title2

$$$$
Pocket2Mol_21
     RDKit          3D

  0  0  0  0  0  0  0  0  0  0999 V3000
M  V30 BEGIN CTAB
M  V30 COUNTS 9 9 0 0 1
M  V30 BEGIN ATOM
M  V30 1 C 11.775370 7.001929 -3.985037 0
M  V30 2 O 12.404346 7.601368 -2.929313 0
M  V30 3 C 12.391160 8.940778 -3.201740 0
M  V30 4 C 11.375406 7.929013 -4.905303 0
M  V30 5 C 11.775986 9.190302 -4.395649 0
M  V30 6 H 11.697372 5.926449 -3.923775 0
M  V30 7 H 12.854974 9.566280 -2.452752 0
M  V30 8 H 10.856375 7.722452 -5.830332 0
M  V30 9 H 11.631700 10.161885 -4.844908 0
M  V30 END ATOM
M  V30 BEGIN BOND
M  V30 1 1 2 1
M  V30 2 1 3 2
M  V30 3 2 4 1
M  V30 4 2 5 3
M  V30 5 1 5 4
M  V30 6 1 6 1
M  V30 7 1 7 3
M  V30 8 1 8 4
M  V30 9 1 9 5
M  V30 END BOND
M  V30 END CTAB
M  END
>  <i_epik_Tot_Q>  (1) 
0

>  <i_epik_Tot_abs_Q>  (1) 
0

>  <i_i_glide_confnum>  (1) 
1

>  <i_i_glide_lignum>  (1) 
25

>  <i_i_glide_posenum>  (1) 
387

>  <i_i_glide_rotatable_bonds>  (1) 
0

>  <i_lp_mmshare_version>  (1) 
72125

>  <i_m_source_file_index>  (1) 
22

>  <i_f3d_flags>  (1) 
0

>  <num_sample>  (1) 
50

>  <b_lp_Chiralities_Consistent>  (1) 
1

>  <r_epik_Charging_Adjusted_Penalty>  (1) 
0

>  <r_epik_Ionization_Penalty>  (1) 
0

>  <r_epik_Ionization_Penalty_Charging>  (1) 
0

>  <r_epik_Ionization_Penalty_Neutral>  (1) 
0

>  <r_epik_State_Penalty>  (1) 
-0

>  <r_glide_ring_energy>  (1) 
0

>  <r_i_docking_score>  (1) 
-4.0581611204141517

>  <r_i_glide_ecoul>  (1) 
-1.2389768004889092

>  <r_i_glide_eff_state_penalty>  (1) 
-0

>  <r_i_glide_einternal>  (1) 
0

>  <r_i_glide_emodel>  (1) 
-14.98659491880143

>  <r_i_glide_emodel_strain>  (1) 
0

>  <r_i_glide_energy>  (1) 
-11.851395543433778

>  <r_i_glide_erotb>  (1) 
0

>  <r_i_glide_esite>  (1) 
0

>  <r_i_glide_evdw>  (1) 
-10.612418742944868

>  <r_i_glide_gscore>  (1) 
-4.0581611204141517

>  <r_i_glide_gscore_strain>  (1) 
0

>  <r_i_glide_hbond>  (1) 
0

>  <r_i_glide_ligand_efficiency>  (1) 
-0.81163222408283031

>  <r_i_glide_ligand_efficiency_ln>  (1) 
-1.5551859276194362

>  <r_i_glide_ligand_efficiency_sa>  (1) 
-1.3878715807293509

>  <r_i_glide_lipo>  (1) 
-0.98188288477008656

>  <r_i_glide_metal>  (1) 
-0

>  <r_i_glide_rewards>  (1) 
-2.3598107784234847

>  <r_lp_Energy>  (1) 
2.5980879999999997

>  <r_lp_tautomer_probability>  (1) 
1

>  <s_epik_cmdline>  (1) 
J2VwaWtfcHl0aG9uJywgJy1waHQnLCAnMS4wJywgJy1waCcsICc3LjQnLCAnLXRuJywgJzgnLCAnLW1hJywgJzUwMCcsICctaW1hZScsICc8aW5maWxlLm1hZT4nLCAnLW9tYWUnLCAnPG91dGZpbGUubWFlPic=

>  <s_epik_input>  (1) 
W2NIXTFvW2NIXVtjSF1bY0hdMQ==

>  <s_glide_docking_method>  (1) 
confgen

>  <s_i_glide_gridfile>  (1) 
gpcr_drd2_6luq_protein_autoprepared_prepared

>  <s_lp_Force_Field>  (1) 
S-OPLS

>  <s_lp_Variant>  (1) 
Pocket2Mol_21-1

>  <s_m_source_file>  (1) 
generated_generic_title2_ligand_Pocket2Mol_2026-06-23_prepared.sdf

>  <GenAI_Model>  (1) 
Pocket2Mol

>  <Protein>  (1) 
generic_title2

$$$$
Pocket2Mol_3
     RDKit          3D

  0  0  0  0  0  0  0  0  0  0999 V3000
M  V30 BEGIN CTAB
M  V30 COUNTS 9 9 0 0 1
M  V30 BEGIN ATOM
M  V30 1 N 9.775410 8.064101 -9.218982 0
M  V30 2 C 10.530584 7.858107 -10.332507 0
M  V30 3 C 11.828936 8.060747 -9.977152 0
M  V30 4 C 11.750442 8.390226 -8.584496 0
M  V30 5 N 10.494498 8.390219 -8.129412 0
M  V30 6 H 8.754682 7.990210 -9.185024 0
M  V30 7 H 10.087601 7.590417 -11.280940 0
M  V30 8 H 12.701923 7.990226 -10.606785 0
M  V30 9 H 12.553123 8.628416 -7.902091 0
M  V30 END ATOM
M  V30 BEGIN BOND
M  V30 1 1 2 1
M  V30 2 2 3 2
M  V30 3 1 4 3
M  V30 4 1 5 1
M  V30 5 2 5 4
M  V30 6 1 6 1
M  V30 7 1 7 2
M  V30 8 1 8 3
M  V30 9 1 9 4
M  V30 END BOND
M  V30 END CTAB
M  END
>  <i_epik_Tot_Q>  (1) 
0

>  <i_epik_Tot_abs_Q>  (1) 
0

>  <i_i_glide_confnum>  (1) 
1

>  <i_i_glide_lignum>  (1) 
4

>  <i_i_glide_posenum>  (1) 
291

>  <i_i_glide_rotatable_bonds>  (1) 
0

>  <i_lp_mmshare_version>  (1) 
72125

>  <i_m_source_file_index>  (1) 
4

>  <i_f3d_flags>  (1) 
0

>  <num_sample>  (1) 
50

>  <b_lp_Chiralities_Consistent>  (1) 
1

>  <r_epik_Charging_Adjusted_Penalty>  (1) 
0

>  <r_epik_Ionization_Penalty>  (1) 
1.0045315435319e-05

>  <r_epik_Ionization_Penalty_Charging>  (1) 
0

>  <r_epik_Ionization_Penalty_Neutral>  (1) 
1.0045315435319e-05

>  <r_epik_State_Penalty>  (1) 
-0

>  <r_glide_ring_energy>  (1) 
0

>  <r_i_docking_score>  (1) 
-4.0531755007426371

>  <r_i_glide_ecoul>  (1) 
-3.7431122445762828

>  <r_i_glide_eff_state_penalty>  (1) 
-0

>  <r_i_glide_einternal>  (1) 
0

>  <r_i_glide_emodel>  (1) 
-18.395040914963232

>  <r_i_glide_emodel_strain>  (1) 
0

>  <r_i_glide_energy>  (1) 
-13.789117844417593

>  <r_i_glide_erotb>  (1) 
0

>  <r_i_glide_esite>  (1) 
-0.10000000000000001

>  <r_i_glide_evdw>  (1) 
-10.04600559984131

>  <r_i_glide_gscore>  (1) 
-4.0531755007426371

>  <r_i_glide_gscore_strain>  (1) 
0

>  <r_i_glide_hbond>  (1) 
-0.16

>  <r_i_glide_ligand_efficiency>  (1) 
-0.81063510014852747

>  <r_i_glide_ligand_efficiency_ln>  (1) 
-1.5532753170439717

>  <r_i_glide_ligand_efficiency_sa>  (1) 
-1.3861665227858373

>  <r_i_glide_lipo>  (1) 
-0.47940838406412956

>  <r_i_glide_metal>  (1) 
-0

>  <r_i_glide_rewards>  (1) 
-2.25

>  <r_lp_Energy>  (1) 
2.3130189999999997

>  <r_lp_tautomer_probability>  (1) 
1

>  <s_epik_cmdline>  (1) 
J2VwaWtfcHl0aG9uJywgJy1waHQnLCAnMS4wJywgJy1waCcsICc3LjQnLCAnLXRuJywgJzgnLCAnLW1hJywgJzUwMCcsICctaW1hZScsICc8aW5maWxlLm1hZT4nLCAnLW9tYWUnLCAnPG91dGZpbGUubWFlPic=

>  <s_epik_input>  (1) 
W25IXTFbY0hdW2NIXVtjSF1uMQ==

>  <s_glide_docking_method>  (1) 
confgen

>  <s_i_glide_gridfile>  (1) 
gpcr_drd2_6luq_protein_autoprepared_prepared

>  <s_lp_Force_Field>  (1) 
S-OPLS

>  <s_lp_Variant>  (1) 
Pocket2Mol_3-1

>  <s_m_source_file>  (1) 
generated_generic_title2_ligand_Pocket2Mol_2026-06-23_prepared.sdf

>  <GenAI_Model>  (1) 
Pocket2Mol

>  <Protein>  (1) 
generic_title2

$$$$
Pocket2Mol_8
     RDKit          3D

  0  0  0  0  0  0  0  0  0  0999 V3000
M  V30 BEGIN CTAB
M  V30 COUNTS 13 13 0 0 1
M  V30 BEGIN ATOM
M  V30 1 N 11.338185 8.205376 -8.389945 0 CHG=1
M  V30 2 C 11.465750 8.052814 -9.744964 0
M  V30 3 C 10.211320 7.786660 -10.236729 0
M  V30 4 C 10.061715 8.044705 -8.028696 0
M  V30 5 C 9.724486 7.530591 -11.622587 0
M  V30 6 N 9.375782 7.790419 -9.148241 0
M  V30 7 H 12.417580 8.142493 -10.249997 0
M  V30 8 H 9.662710 8.107609 -7.030910 0
M  V30 9 H 10.552663 7.574278 -12.330627 0
M  V30 10 H 9.266517 6.543152 -11.687438 0
M  V30 11 H 8.985209 8.279058 -11.909367 0
M  V30 12 H 8.376885 7.623842 -9.185025 0
M  V30 13 H 12.099177 8.410116 -7.753091 0
M  V30 END ATOM
M  V30 BEGIN BOND
M  V30 1 1 2 1
M  V30 2 2 3 2
M  V30 3 2 4 1
M  V30 4 1 5 3
M  V30 5 1 6 3
M  V30 6 1 6 4
M  V30 7 1 7 2
M  V30 8 1 8 4
M  V30 9 1 9 5
M  V30 10 1 10 5
M  V30 11 1 11 5
M  V30 12 1 12 6
M  V30 13 1 13 1
M  V30 END BOND
M  V30 END CTAB
M  END
>  <i_epik_Tot_Q>  (1) 
1

>  <i_epik_Tot_abs_Q>  (1) 
1

>  <i_i_glide_confnum>  (1) 
1

>  <i_i_glide_lignum>  (1) 
10

>  <i_i_glide_posenum>  (1) 
291

>  <i_i_glide_rotatable_bonds>  (1) 
0

>  <i_lp_mmshare_version>  (1) 
72125

>  <i_m_source_file_index>  (1) 
9

>  <i_f3d_flags>  (1) 
0

>  <num_sample>  (1) 
50

>  <b_lp_Chiralities_Consistent>  (1) 
1

>  <r_epik_Charging_Adjusted_Penalty>  (1) 
0.63910500234431922

>  <r_epik_Ionization_Penalty>  (1) 
0.82018112513013652

>  <r_epik_Ionization_Penalty_Charging>  (1) 
0

>  <r_epik_Ionization_Penalty_Neutral>  (1) 
0.82018112513013652

>  <r_epik_State_Penalty>  (1) 
0.63910500234431922

>  <r_glide_ring_energy>  (1) 
0

>  <r_i_docking_score>  (1) 
-4.0355731568691189

>  <r_i_glide_ecoul>  (1) 
-10.232355892520403

>  <r_i_glide_eff_state_penalty>  (1) 
0.63910500234431922

>  <r_i_glide_einternal>  (1) 
0

>  <r_i_glide_emodel>  (1) 
-26.620240688364195

>  <r_i_glide_emodel_strain>  (1) 
0

>  <r_i_glide_energy>  (1) 
-17.911156767197056

>  <r_i_glide_erotb>  (1) 
0

>  <r_i_glide_esite>  (1) 
-0.14809100407513709

>  <r_i_glide_evdw>  (1) 
-7.6788008746766554

>  <r_i_glide_gscore>  (1) 
-4.6746781592134381

>  <r_i_glide_gscore_strain>  (1) 
0

>  <r_i_glide_hbond>  (1) 
-0.16610137616831971

>  <r_i_glide_ligand_efficiency>  (1) 
-0.67259552614485318

>  <r_i_glide_ligand_efficiency_ln>  (1) 
-1.4455303909061294

>  <r_i_glide_ligand_efficiency_sa>  (1) 
-1.2221871812045806

>  <r_i_glide_lipo>  (1) 
-0.1916923513580879

>  <r_i_glide_metal>  (1) 
-0

>  <r_i_glide_rewards>  (1) 
-2.25

>  <r_lp_Energy>  (1) 
7.4764169999999996

>  <r_lp_tautomer_probability>  (1) 
1

>  <s_epik_cmdline>  (1) 
J2VwaWtfcHl0aG9uJywgJy1waHQnLCAnMS4wJywgJy1waCcsICc3LjQnLCAnLXRuJywgJzgnLCAnLW1hJywgJzUwMCcsICctaW1hZScsICc8aW5maWxlLm1hZT4nLCAnLW9tYWUnLCAnPG91dGZpbGUubWFlPic=

>  <s_epik_input>  (1) 
W25IXTFbY0hdbltjSF1jMVtDSDNd

>  <s_glide_docking_method>  (1) 
confgen

>  <s_i_glide_gridfile>  (1) 
gpcr_drd2_6luq_protein_autoprepared_prepared

>  <s_lp_Force_Field>  (1) 
S-OPLS

>  <s_lp_Variant>  (1) 
Pocket2Mol_8-2

>  <s_m_source_file>  (1) 
generated_generic_title2_ligand_Pocket2Mol_2026-06-23_prepared.sdf

>  <GenAI_Model>  (1) 
Pocket2Mol

>  <Protein>  (1) 
generic_title2

$$$$
Pocket2Mol_49
     RDKit          3D

  0  0  0  0  0  0  0  0  0  0999 V3000
M  V30 BEGIN CTAB
M  V30 COUNTS 11 11 0 0 1
M  V30 BEGIN ATOM
M  V30 1 O 11.251269 9.956951 -4.876307 0
M  V30 2 C 11.076061 9.190126 -6.045260 0
M  V30 3 C 10.975423 7.779963 -5.475742 0
M  V30 4 C 12.082284 9.175420 -4.093746 0
M  V30 5 O 11.775410 7.837821 -4.307651 0
M  V30 6 H 10.188095 9.483542 -6.603239 0
M  V30 7 H 11.949041 9.294258 -6.692250 0
M  V30 8 H 9.950548 7.548143 -5.186847 0
M  V30 9 H 11.320293 7.015804 -6.173254 0
M  V30 10 H 13.119354 9.349346 -4.386912 0
M  V30 11 H 11.966845 9.431167 -3.039611 0
M  V30 END ATOM
M  V30 BEGIN BOND
M  V30 1 1 2 1
M  V30 2 1 3 2
M  V30 3 1 4 1
M  V30 4 1 5 3
M  V30 5 1 5 4
M  V30 6 1 6 2
M  V30 7 1 7 2
M  V30 8 1 8 3
M  V30 9 1 9 3
M  V30 10 1 10 4
M  V30 11 1 11 4
M  V30 END BOND
M  V30 END CTAB
M  END
>  <i_epik_Tot_Q>  (1) 
0

>  <i_epik_Tot_abs_Q>  (1) 
0

>  <i_i_glide_confnum>  (1) 
1

>  <i_i_glide_lignum>  (1) 
55

>  <i_i_glide_posenum>  (1) 
286

>  <i_i_glide_rotatable_bonds>  (1) 
0

>  <i_lp_mmshare_version>  (1) 
72125

>  <i_m_source_file_index>  (1) 
50

>  <i_f3d_flags>  (1) 
0

>  <num_sample>  (1) 
50

>  <b_lp_Chiralities_Consistent>  (1) 
1

>  <r_epik_Charging_Adjusted_Penalty>  (1) 
0

>  <r_epik_Ionization_Penalty>  (1) 
7.9724310449397378e-14

>  <r_epik_Ionization_Penalty_Charging>  (1) 
0

>  <r_epik_Ionization_Penalty_Neutral>  (1) 
7.9724310449397378e-14

>  <r_epik_State_Penalty>  (1) 
-0

>  <r_glide_ring_energy>  (1) 
0

>  <r_i_docking_score>  (1) 
-4.0304639556830697

>  <r_i_glide_ecoul>  (1) 
-0.71750673606598725

>  <r_i_glide_eff_state_penalty>  (1) 
-0

>  <r_i_glide_einternal>  (1) 
0

>  <r_i_glide_emodel>  (1) 
-16.201104129776336

>  <r_i_glide_emodel_strain>  (1) 
0

>  <r_i_glide_energy>  (1) 
-12.713616727847855

>  <r_i_glide_erotb>  (1) 
0

>  <r_i_glide_esite>  (1) 
0

>  <r_i_glide_evdw>  (1) 
-11.996109991781868

>  <r_i_glide_gscore>  (1) 
-4.0304639556830697

>  <r_i_glide_gscore_strain>  (1) 
0

>  <r_i_glide_hbond>  (1) 
0

>  <r_i_glide_ligand_efficiency>  (1) 
-0.80609279113661392

>  <r_i_glide_ligand_efficiency_ln>  (1) 
-1.5445717012379216

>  <r_i_glide_ligand_efficiency_sa>  (1) 
-1.3783992836330925

>  <r_i_glide_lipo>  (1) 
-0.56190441797330815

>  <r_i_glide_metal>  (1) 
-0

>  <r_i_glide_rewards>  (1) 
-2.7611280277107699

>  <r_lp_Energy>  (1) 
-12.242958999999999

>  <r_lp_tautomer_probability>  (1) 
1

>  <s_epik_Chemistry_Notes>  (1) 
This compound contains an acetal/aminal-like group ( X-CH(R)-Y where X, Y are N, S, or O) that may be acid/base labile, releasing an aldehyde.

>  <s_epik_cmdline>  (1) 
J2VwaWtfcHl0aG9uJywgJy1waHQnLCAnMS4wJywgJy1waCcsICc3LjQnLCAnLXRuJywgJzgnLCAnLW1hJywgJzUwMCcsICctaW1hZScsICc8aW5maWxlLm1hZT4nLCAnLW9tYWUnLCAnPG91dGZpbGUubWFlPic=

>  <s_epik_input>  (1) 
TzFbQ0gyXVtDSDJdT1tDSDJdMQ==

>  <s_glide_docking_method>  (1) 
confgen

>  <s_i_glide_gridfile>  (1) 
gpcr_drd2_6luq_protein_autoprepared_prepared

>  <s_lp_Force_Field>  (1) 
S-OPLS

>  <s_lp_Variant>  (1) 
Pocket2Mol_49-1

>  <s_m_source_file>  (1) 
generated_generic_title2_ligand_Pocket2Mol_2026-06-23_prepared.sdf

>  <GenAI_Model>  (1) 
Pocket2Mol

>  <Protein>  (1) 
generic_title2

$$$$
Pocket2Mol_47
     RDKit          3D

  0  0  0  0  0  0  0  0  0  0999 V3000
M  V30 BEGIN CTAB
M  V30 COUNTS 11 11 0 0 1
M  V30 BEGIN ATOM
M  V30 1 C 10.884552 6.790227 -5.540907 0
M  V30 2 O 11.375031 8.152755 -5.230609 0
M  V30 3 C 9.872297 6.790197 -6.785080 0
M  V30 4 C 9.981800 8.232549 -6.988968 0
M  V30 5 C 10.755768 8.876826 -6.176318 0
M  V30 6 H 10.392839 6.382581 -4.656876 0
M  V30 7 H 11.740657 6.146429 -5.749801 0
M  V30 8 H 8.855138 6.496794 -6.521224 0
M  V30 9 H 10.236138 6.225950 -7.644063 0
M  V30 10 H 9.431028 8.710565 -7.786884 0
M  V30 11 H 10.973681 9.934559 -6.153806 0
M  V30 END ATOM
M  V30 BEGIN BOND
M  V30 1 1 2 1
M  V30 2 1 3 1
M  V30 3 1 4 3
M  V30 4 1 5 2
M  V30 5 2 5 4
M  V30 6 1 6 1
M  V30 7 1 7 1
M  V30 8 1 8 3
M  V30 9 1 9 3
M  V30 10 1 10 4
M  V30 11 1 11 5
M  V30 END BOND
M  V30 END CTAB
M  END
>  <i_epik_Tot_Q>  (1) 
0

>  <i_epik_Tot_abs_Q>  (1) 
0

>  <i_i_glide_confnum>  (1) 
1

>  <i_i_glide_lignum>  (1) 
53

>  <i_i_glide_posenum>  (1) 
303

>  <i_i_glide_rotatable_bonds>  (1) 
0

>  <i_lp_mmshare_version>  (1) 
72125

>  <i_m_source_file_index>  (1) 
48

>  <i_f3d_flags>  (1) 
0

>  <num_sample>  (1) 
50

>  <b_lp_Chiralities_Consistent>  (1) 
1

>  <r_epik_Charging_Adjusted_Penalty>  (1) 
0

>  <r_epik_Ionization_Penalty>  (1) 
0

>  <r_epik_Ionization_Penalty_Charging>  (1) 
0

>  <r_epik_Ionization_Penalty_Neutral>  (1) 
0

>  <r_epik_State_Penalty>  (1) 
-0

>  <r_glide_ring_energy>  (1) 
0

>  <r_i_docking_score>  (1) 
-4.0254946841873691

>  <r_i_glide_ecoul>  (1) 
-0.84326979153295778

>  <r_i_glide_eff_state_penalty>  (1) 
-0

>  <r_i_glide_einternal>  (1) 
0

>  <r_i_glide_emodel>  (1) 
-16.714378752423432

>  <r_i_glide_emodel_strain>  (1) 
0

>  <r_i_glide_energy>  (1) 
-13.201827917007151

>  <r_i_glide_erotb>  (1) 
0

>  <r_i_glide_esite>  (1) 
0

>  <r_i_glide_evdw>  (1) 
-12.358558125474193

>  <r_i_glide_gscore>  (1) 
-4.0254946841873691

>  <r_i_glide_gscore_strain>  (1) 
0

>  <r_i_glide_hbond>  (1) 
0

>  <r_i_glide_ligand_efficiency>  (1) 
-0.8050989368374738

>  <r_i_glide_ligand_efficiency_ln>  (1) 
-1.542667355680581

>  <r_i_glide_ligand_efficiency_sa>  (1) 
-1.3766998166870617

>  <r_i_glide_lipo>  (1) 
-0.70165930427859202

>  <r_i_glide_metal>  (1) 
-0

>  <r_i_glide_rewards>  (1) 
-2.5794170049051242

>  <r_lp_Energy>  (1) 
-3.1771669999999999

>  <r_lp_tautomer_probability>  (1) 
1

>  <s_epik_cmdline>  (1) 
J2VwaWtfcHl0aG9uJywgJy1waHQnLCAnMS4wJywgJy1waCcsICc3LjQnLCAnLXRuJywgJzgnLCAnLW1hJywgJzUwMCcsICctaW1hZScsICc8aW5maWxlLm1hZT4nLCAnLW9tYWUnLCAnPG91dGZpbGUubWFlPic=

>  <s_epik_input>  (1) 
W0NIMl0xT1tDSF09W0NIXVtDSDJdMQ==

>  <s_glide_docking_method>  (1) 
confgen

>  <s_i_glide_gridfile>  (1) 
gpcr_drd2_6luq_protein_autoprepared_prepared

>  <s_lp_Force_Field>  (1) 
S-OPLS

>  <s_lp_Variant>  (1) 
Pocket2Mol_47-1

>  <s_m_source_file>  (1) 
generated_generic_title2_ligand_Pocket2Mol_2026-06-23_prepared.sdf

>  <GenAI_Model>  (1) 
Pocket2Mol

>  <Protein>  (1) 
generic_title2

$$$$
Pocket2Mol_0
     RDKit          3D

  0  0  0  0  0  0  0  0  0  0999 V3000
M  V30 BEGIN CTAB
M  V30 COUNTS 10 10 0 0 1
M  V30 BEGIN ATOM
M  V30 1 N 10.982201 8.221903 -6.352354 0
M  V30 2 C 11.192045 8.390297 -7.690229 0
M  V30 3 C 10.575411 7.540906 -8.453183 0
M  V30 4 C 10.185443 7.190149 -6.400579 0
M  V30 5 C 9.753908 6.534632 -7.771730 0
M  V30 6 H 11.833480 9.190844 -8.029387 0
M  V30 7 H 10.644078 7.550707 -9.531058 0
M  V30 8 H 9.775214 6.723149 -5.501478 0
M  V30 9 H 10.122120 5.515523 -7.888119 0
M  V30 10 H 8.685456 6.634232 -7.968887 0
M  V30 END ATOM
M  V30 BEGIN BOND
M  V30 1 1 2 1
M  V30 2 2 3 2
M  V30 3 2 4 1
M  V30 4 1 5 3
M  V30 5 1 5 4
M  V30 6 1 6 2
M  V30 7 1 7 3
M  V30 8 1 8 4
M  V30 9 1 9 5
M  V30 10 1 10 5
M  V30 END BOND
M  V30 END CTAB
M  END
>  <i_epik_Tot_Q>  (1) 
0

>  <i_epik_Tot_abs_Q>  (1) 
0

>  <i_i_glide_confnum>  (1) 
1

>  <i_i_glide_lignum>  (1) 
1

>  <i_i_glide_posenum>  (1) 
244

>  <i_i_glide_rotatable_bonds>  (1) 
0

>  <i_lp_mmshare_version>  (1) 
72125

>  <i_m_source_file_index>  (1) 
1

>  <i_f3d_flags>  (1) 
0

>  <num_sample>  (1) 
50

>  <b_lp_Chiralities_Consistent>  (1) 
1

>  <r_epik_Charging_Adjusted_Penalty>  (1) 
0

>  <r_epik_Ionization_Penalty>  (1) 
0

>  <r_epik_Ionization_Penalty_Charging>  (1) 
0

>  <r_epik_Ionization_Penalty_Neutral>  (1) 
0

>  <r_epik_State_Penalty>  (1) 
-0

>  <r_glide_ring_energy>  (1) 
0

>  <r_i_docking_score>  (1) 
-4.0195147232229509

>  <r_i_glide_ecoul>  (1) 
-1.3878241507814086

>  <r_i_glide_eff_state_penalty>  (1) 
-0

>  <r_i_glide_einternal>  (1) 
0

>  <r_i_glide_emodel>  (1) 
-17.913829121131155

>  <r_i_glide_emodel_strain>  (1) 
0

>  <r_i_glide_energy>  (1) 
-14.126879404077647

>  <r_i_glide_erotb>  (1) 
0

>  <r_i_glide_esite>  (1) 
0

>  <r_i_glide_evdw>  (1) 
-12.739055253296238

>  <r_i_glide_gscore>  (1) 
-4.0195147232229509

>  <r_i_glide_gscore_strain>  (1) 
0

>  <r_i_glide_hbond>  (1) 
0

>  <r_i_glide_ligand_efficiency>  (1) 
-0.80390294464459022

>  <r_i_glide_ligand_efficiency_ln>  (1) 
-1.5403756893658074

>  <r_i_glide_ligand_efficiency_sa>  (1) 
-1.3746546988048174

>  <r_i_glide_lipo>  (1) 
-0.21219770972073534

>  <r_i_glide_metal>  (1) 
-0

>  <r_i_glide_rewards>  (1) 
-2.9621906282201929

>  <r_lp_Energy>  (1) 
-2.9532909999999997

>  <r_lp_tautomer_probability>  (1) 
1

>  <s_epik_Chemistry_Notes>  (1) 
This compound has an imine and may undergo hydrolysis.

>  <s_epik_cmdline>  (1) 
J2VwaWtfcHl0aG9uJywgJy1waHQnLCAnMS4wJywgJy1waCcsICc3LjQnLCAnLXRuJywgJzgnLCAnLW1hJywgJzUwMCcsICctaW1hZScsICc8aW5maWxlLm1hZT4nLCAnLW9tYWUnLCAnPG91dGZpbGUubWFlPic=

>  <s_epik_input>  (1) 
TjE9W0NIXVtDSDJdW0NIXT1bQ0hdMQ==

>  <s_glide_docking_method>  (1) 
confgen

>  <s_i_glide_gridfile>  (1) 
gpcr_drd2_6luq_protein_autoprepared_prepared

>  <s_lp_Force_Field>  (1) 
S-OPLS

>  <s_lp_Variant>  (1) 
Pocket2Mol_0-1

>  <s_m_source_file>  (1) 
generated_generic_title2_ligand_Pocket2Mol_2026-06-23_prepared.sdf

>  <GenAI_Model>  (1) 
Pocket2Mol

>  <Protein>  (1) 
generic_title2

$$$$
Pocket2Mol_44
     RDKit          3D

  0  0  0  0  0  0  0  0  0  0999 V3000
M  V30 BEGIN CTAB
M  V30 COUNTS 15 16 0 0 1
M  V30 BEGIN ATOM
M  V30 1 C 12.429244 8.482745 -2.167860 0
M  V30 2 O 12.177397 7.175970 -2.776808 0
M  V30 3 C 11.775410 7.578253 -3.985026 0
M  V30 4 C 11.777522 8.900573 -4.155217 0
M  V30 5 C 11.375532 9.474186 -5.375027 0
M  V30 6 N 10.976618 8.652401 -6.377983 0 CHG=1
M  V30 7 C 10.957336 7.298633 -6.242950 0
M  V30 8 C 11.366846 6.716777 -5.016778 0
M  V30 9 O 12.176560 9.590213 -3.088468 0
M  V30 10 H 13.465967 8.533853 -1.836300 0
M  V30 11 H 11.785427 8.599284 -1.294031 0
M  V30 12 H 11.352475 10.534784 -5.579271 0
M  V30 13 H 10.620245 6.735780 -7.103124 0
M  V30 14 H 11.362074 5.650342 -4.876847 0
M  V30 15 H 10.678352 9.063031 -7.264723 0
M  V30 END ATOM
M  V30 BEGIN BOND
M  V30 1 1 2 1
M  V30 2 1 3 2
M  V30 3 2 4 3
M  V30 4 1 5 4
M  V30 5 2 6 5
M  V30 6 1 7 6
M  V30 7 1 8 3
M  V30 8 2 8 7
M  V30 9 1 9 1
M  V30 10 1 9 4
M  V30 11 1 10 1
M  V30 12 1 11 1
M  V30 13 1 12 5
M  V30 14 1 13 7
M  V30 15 1 14 8
M  V30 16 1 15 6
M  V30 END BOND
M  V30 END CTAB
M  END
>  <i_epik_Tot_Q>  (1) 
1

>  <i_epik_Tot_abs_Q>  (1) 
1

>  <i_i_glide_confnum>  (1) 
1

>  <i_i_glide_lignum>  (1) 
50

>  <i_i_glide_posenum>  (1) 
284

>  <i_i_glide_rotatable_bonds>  (1) 
0

>  <i_lp_mmshare_version>  (1) 
72125

>  <i_m_source_file_index>  (1) 
45

>  <i_f3d_flags>  (1) 
0

>  <num_sample>  (1) 
50

>  <b_lp_Chiralities_Consistent>  (1) 
1

>  <r_epik_Charging_Adjusted_Penalty>  (1) 
2.6035637255513002

>  <r_epik_Ionization_Penalty>  (1) 
1.3017818627756499

>  <r_epik_Ionization_Penalty_Charging>  (1) 
1.3017818627756499

>  <r_epik_Ionization_Penalty_Neutral>  (1) 
0

>  <r_epik_State_Penalty>  (1) 
1.3017818627756503

>  <r_glide_ring_energy>  (1) 
0

>  <r_i_docking_score>  (1) 
-3.9986962323364237

>  <r_i_glide_ecoul>  (1) 
-0.85655462539519134

>  <r_i_glide_eff_state_penalty>  (1) 
1.3017818627756503

>  <r_i_glide_einternal>  (1) 
0

>  <r_i_glide_emodel>  (1) 
-27.991456468771336

>  <r_i_glide_emodel_strain>  (1) 
0

>  <r_i_glide_energy>  (1) 
-18.070654699715131

>  <r_i_glide_erotb>  (1) 
0

>  <r_i_glide_esite>  (1) 
0

>  <r_i_glide_evdw>  (1) 
-17.214100074319941

>  <r_i_glide_gscore>  (1) 
-5.3004780951120738

>  <r_i_glide_gscore_strain>  (1) 
0

>  <r_i_glide_hbond>  (1) 
0

>  <r_i_glide_ligand_efficiency>  (1) 
-0.44429958137071374

>  <r_i_glide_ligand_efficiency_ln>  (1) 
-1.2506773095269879

>  <r_i_glide_ligand_efficiency_sa>  (1) 
-0.92418037179795498

>  <r_i_glide_lipo>  (1) 
-1.3279565642534645

>  <r_i_glide_metal>  (1) 
-0

>  <r_i_glide_rewards>  (1) 
-2.9833333333333334

>  <r_lp_Energy>  (1) 
25.893000999999998

>  <s_epik_Chemistry_Notes>  (1) 
This compound contains an acetal/aminal-like group ( X-CH(R)-Y where X, Y are N, S, or O) that may be acid/base labile, releasing an aldehyde.

>  <s_epik_cmdline>  (1) 
J2VwaWtfcHl0aG9uJywgJy1waHQnLCAnMS4wJywgJy1waCcsICc3LjQnLCAnLXRuJywgJzgnLCAnLW1hJywgJzUwMCcsICctaW1hZScsICc8aW5maWxlLm1hZT4nLCAnLW9tYWUnLCAnPG91dGZpbGUubWFlPic=

>  <s_epik_input>  (1) 
TzFbQ0gyXU9jKGMxMilbY0hdbltjSF1bY0hdMg==

>  <s_glide_docking_method>  (1) 
confgen

>  <s_i_glide_gridfile>  (1) 
gpcr_drd2_6luq_protein_autoprepared_prepared

>  <s_lp_Force_Field>  (1) 
S-OPLS

>  <s_lp_Variant>  (1) 
Pocket2Mol_44-2

>  <s_m_source_file>  (1) 
generated_generic_title2_ligand_Pocket2Mol_2026-06-23_prepared.sdf

>  <GenAI_Model>  (1) 
Pocket2Mol

>  <Protein>  (1) 
generic_title2

$$$$
Pocket2Mol_1
     RDKit          3D

  0  0  0  0  0  0  0  0  0  0999 V3000
M  V30 BEGIN CTAB
M  V30 COUNTS 10 10 0 0 1
M  V30 BEGIN ATOM
M  V30 1 N 9.375412 7.549427 -8.232117 0
M  V30 2 C 9.683276 6.677544 -7.218851 0
M  V30 3 C 10.976924 6.934560 -6.845103 0
M  V30 4 C 11.461469 8.004051 -7.669762 0
M  V30 5 C 10.446667 8.361968 -8.519613 0
M  V30 6 H 8.465518 7.590419 -8.707968 0
M  V30 7 H 8.960304 5.962940 -6.859437 0
M  V30 8 H 11.519296 6.413656 -6.064462 0
M  V30 9 H 12.445819 8.458957 -7.640414 0
M  V30 10 H 10.388825 9.112789 -9.291575 0
M  V30 END ATOM
M  V30 BEGIN BOND
M  V30 1 1 2 1
M  V30 2 2 3 2
M  V30 3 1 4 3
M  V30 4 1 5 1
M  V30 5 2 5 4
M  V30 6 1 6 1
M  V30 7 1 7 2
M  V30 8 1 8 3
M  V30 9 1 9 4
M  V30 10 1 10 5
M  V30 END BOND
M  V30 END CTAB
M  END
>  <i_epik_Tot_Q>  (1) 
0

>  <i_epik_Tot_abs_Q>  (1) 
0

>  <i_i_glide_confnum>  (1) 
1

>  <i_i_glide_lignum>  (1) 
2

>  <i_i_glide_posenum>  (1) 
375

>  <i_i_glide_rotatable_bonds>  (1) 
0

>  <i_lp_mmshare_version>  (1) 
72125

>  <i_m_source_file_index>  (1) 
2

>  <i_f3d_flags>  (1) 
0

>  <num_sample>  (1) 
50

>  <b_lp_Chiralities_Consistent>  (1) 
1

>  <r_epik_Charging_Adjusted_Penalty>  (1) 
0

>  <r_epik_Ionization_Penalty>  (1) 
4.7655302421719939e-09

>  <r_epik_Ionization_Penalty_Charging>  (1) 
0

>  <r_epik_Ionization_Penalty_Neutral>  (1) 
4.7655302421719939e-09

>  <r_epik_State_Penalty>  (1) 
-0

>  <r_glide_ring_energy>  (1) 
0

>  <r_i_docking_score>  (1) 
-3.997066852965669

>  <r_i_glide_ecoul>  (1) 
-3.7984019704536225

>  <r_i_glide_eff_state_penalty>  (1) 
-0

>  <r_i_glide_einternal>  (1) 
0

>  <r_i_glide_emodel>  (1) 
-17.328343780627453

>  <r_i_glide_emodel_strain>  (1) 
0

>  <r_i_glide_energy>  (1) 
-13.126797501271728

>  <r_i_glide_erotb>  (1) 
0

>  <r_i_glide_esite>  (1) 
-0.10000000000000001

>  <r_i_glide_evdw>  (1) 
-9.3283955308181064

>  <r_i_glide_gscore>  (1) 
-3.997066852965669

>  <r_i_glide_gscore_strain>  (1) 
0

>  <r_i_glide_hbond>  (1) 
-0.16

>  <r_i_glide_ligand_efficiency>  (1) 
-0.79941337059313378

>  <r_i_glide_ligand_efficiency_ln>  (1) 
-1.5317731201495342

>  <r_i_glide_ligand_efficiency_sa>  (1) 
-1.3669776351660032

>  <r_i_glide_lipo>  (1) 
-0.45088678085672057

>  <r_i_glide_metal>  (1) 
-0

>  <r_i_glide_rewards>  (1) 
-2.25

>  <r_lp_Energy>  (1) 
2.9132020000000001

>  <r_lp_tautomer_probability>  (1) 
1

>  <s_epik_cmdline>  (1) 
J2VwaWtfcHl0aG9uJywgJy1waHQnLCAnMS4wJywgJy1waCcsICc3LjQnLCAnLXRuJywgJzgnLCAnLW1hJywgJzUwMCcsICctaW1hZScsICc8aW5maWxlLm1hZT4nLCAnLW9tYWUnLCAnPG91dGZpbGUubWFlPic=

>  <s_epik_input>  (1) 
W25IXTFbY0hdW2NIXVtjSF1bY0hdMQ==

>  <s_glide_docking_method>  (1) 
confgen

>  <s_i_glide_gridfile>  (1) 
gpcr_drd2_6luq_protein_autoprepared_prepared

>  <s_lp_Force_Field>  (1) 
S-OPLS

>  <s_lp_Variant>  (1) 
Pocket2Mol_1-1

>  <s_m_source_file>  (1) 
generated_generic_title2_ligand_Pocket2Mol_2026-06-23_prepared.sdf

>  <GenAI_Model>  (1) 
Pocket2Mol

>  <Protein>  (1) 
generic_title2

$$$$
Pocket2Mol_4
     RDKit          3D

  0  0  0  0  0  0  0  0  0  0999 V3000
M  V30 BEGIN CTAB
M  V30 COUNTS 16 16 0 0 1
M  V30 BEGIN ATOM
M  V30 1 C 9.775410 7.148432 -6.481691 0
M  V30 2 O 11.050333 7.663869 -6.110090 0
M  V30 3 C 11.436554 8.790225 -6.889178 0
M  V30 4 C 11.561474 8.390229 -8.369182 0
M  V30 5 C 10.245231 7.785891 -8.872514 0
M  V30 6 C 9.803968 6.654985 -7.936453 0
M  V30 7 H 9.518907 6.327986 -5.812163 0
M  V30 8 H 9.007937 7.913628 -6.350981 0
M  V30 9 H 10.707841 9.590226 -6.760136 0
M  V30 10 H 12.389884 9.169466 -6.520365 0
M  V30 11 H 11.833900 9.255505 -8.974281 0
M  V30 12 H 12.366183 7.663100 -8.481315 0
M  V30 13 H 9.471208 8.554845 -8.901841 0
M  V30 14 H 10.356087 7.415620 -9.892026 0
M  V30 15 H 10.490093 5.811591 -8.023019 0
M  V30 16 H 8.817118 6.292045 -8.227872 0
M  V30 END ATOM
M  V30 BEGIN BOND
M  V30 1 1 2 1
M  V30 2 1 3 2
M  V30 3 1 4 3
M  V30 4 1 5 4
M  V30 5 1 6 1
M  V30 6 1 6 5
M  V30 7 1 7 1
M  V30 8 1 8 1
M  V30 9 1 9 3
M  V30 10 1 10 3
M  V30 11 1 11 4
M  V30 12 1 12 4
M  V30 13 1 13 5
M  V30 14 1 14 5
M  V30 15 1 15 6
M  V30 16 1 16 6
M  V30 END BOND
M  V30 END CTAB
M  END
>  <i_epik_Tot_Q>  (1) 
0

>  <i_epik_Tot_abs_Q>  (1) 
0

>  <i_i_glide_confnum>  (1) 
2

>  <i_i_glide_lignum>  (1) 
5

>  <i_i_glide_posenum>  (1) 
361

>  <i_i_glide_rotatable_bonds>  (1) 
0

>  <i_lp_mmshare_version>  (1) 
72125

>  <i_m_source_file_index>  (1) 
5

>  <i_f3d_flags>  (1) 
0

>  <num_sample>  (1) 
50

>  <b_lp_Chiralities_Consistent>  (1) 
1

>  <r_epik_Charging_Adjusted_Penalty>  (1) 
0

>  <r_epik_Ionization_Penalty>  (1) 
1.5229185111393156e-11

>  <r_epik_Ionization_Penalty_Charging>  (1) 
0

>  <r_epik_Ionization_Penalty_Neutral>  (1) 
1.5229185111393156e-11

>  <r_epik_State_Penalty>  (1) 
-0

>  <r_glide_ring_energy>  (1) 
0.00023819064548269558

>  <r_i_docking_score>  (1) 
-3.996398572142859

>  <r_i_glide_ecoul>  (1) 
-0.53631982480601414

>  <r_i_glide_eff_state_penalty>  (1) 
-0

>  <r_i_glide_einternal>  (1) 
0

>  <r_i_glide_emodel>  (1) 
-18.672511372631487

>  <r_i_glide_emodel_strain>  (1) 
0

>  <r_i_glide_energy>  (1) 
-14.867147984303543

>  <r_i_glide_erotb>  (1) 
0

>  <r_i_glide_esite>  (1) 
0

>  <r_i_glide_evdw>  (1) 
-14.330828159497528

>  <r_i_glide_gscore>  (1) 
-3.996398572142859

>  <r_i_glide_gscore_strain>  (1) 
0

>  <r_i_glide_hbond>  (1) 
0

>  <r_i_glide_ligand_efficiency>  (1) 
-0.6660664286904765

>  <r_i_glide_ligand_efficiency_ln>  (1) 
-1.4314981703090264

>  <r_i_glide_ligand_efficiency_sa>  (1) 
-1.2103230237676248

>  <r_i_glide_lipo>  (1) 
-0.50774252378041373

>  <r_i_glide_metal>  (1) 
-0

>  <r_i_glide_rewards>  (1) 
-2.6916666666666669

>  <r_lp_Energy>  (1) 
2.9645999999999999

>  <r_lp_tautomer_probability>  (1) 
1

>  <s_epik_cmdline>  (1) 
J2VwaWtfcHl0aG9uJywgJy1waHQnLCAnMS4wJywgJy1waCcsICc3LjQnLCAnLXRuJywgJzgnLCAnLW1hJywgJzUwMCcsICctaW1hZScsICc8aW5maWxlLm1hZT4nLCAnLW9tYWUnLCAnPG91dGZpbGUubWFlPic=

>  <s_epik_input>  (1) 
W0NIMl0xT1tDSDJdW0NIMl1bQ0gyXVtDSDJdMQ==

>  <s_glide_docking_method>  (1) 
confgen

>  <s_i_glide_gridfile>  (1) 
gpcr_drd2_6luq_protein_autoprepared_prepared

>  <s_lp_Force_Field>  (1) 
S-OPLS

>  <s_lp_Variant>  (1) 
Pocket2Mol_4-1

>  <s_m_source_file>  (1) 
generated_generic_title2_ligand_Pocket2Mol_2026-06-23_prepared.sdf

>  <GenAI_Model>  (1) 
Pocket2Mol

>  <Protein>  (1) 
generic_title2

$$$$
Pocket2Mol_4
     RDKit          3D

  0  0  0  0  0  0  0  0  0  0999 V3000
M  V30 BEGIN CTAB
M  V30 COUNTS 16 16 0 0 1
M  V30 BEGIN ATOM
M  V30 1 C 11.806190 8.361009 -8.249622 0
M  V30 2 O 11.430465 8.805623 -6.949034 0
M  V30 3 C 10.881599 7.767905 -6.141055 0
M  V30 4 C 9.602063 7.212671 -6.785025 0
M  V30 5 C 9.890419 6.721062 -8.206978 0
M  V30 6 C 10.575089 7.835789 -9.006159 0
M  V30 7 H 12.252875 9.190260 -8.796522 0
M  V30 8 H 12.573275 7.590233 -8.168950 0
M  V30 9 H 11.616277 6.973748 -5.999777 0
M  V30 10 H 10.657009 8.173565 -5.155389 0
M  V30 11 H 9.194951 6.400642 -6.181566 0
M  V30 12 H 8.836944 7.990275 -6.813612 0
M  V30 13 H 10.534476 5.841445 -8.170084 0
M  V30 14 H 8.965092 6.415184 -8.696814 0
M  V30 15 H 9.869727 8.652295 -9.168668 0
M  V30 16 H 10.862247 7.470608 -9.992363 0
M  V30 END ATOM
M  V30 BEGIN BOND
M  V30 1 1 2 1
M  V30 2 1 3 2
M  V30 3 1 4 3
M  V30 4 1 5 4
M  V30 5 1 6 1
M  V30 6 1 6 5
M  V30 7 1 7 1
M  V30 8 1 8 1
M  V30 9 1 9 3
M  V30 10 1 10 3
M  V30 11 1 11 4
M  V30 12 1 12 4
M  V30 13 1 13 5
M  V30 14 1 14 5
M  V30 15 1 15 6
M  V30 16 1 16 6
M  V30 END BOND
M  V30 END CTAB
M  END
>  <i_epik_Tot_Q>  (1) 
0

>  <i_epik_Tot_abs_Q>  (1) 
0

>  <i_i_glide_confnum>  (1) 
2

>  <i_i_glide_lignum>  (1) 
5

>  <i_i_glide_posenum>  (1) 
205

>  <i_i_glide_rotatable_bonds>  (1) 
0

>  <i_lp_mmshare_version>  (1) 
72125

>  <i_m_source_file_index>  (1) 
5

>  <i_f3d_flags>  (1) 
0

>  <num_sample>  (1) 
50

>  <b_lp_Chiralities_Consistent>  (1) 
1

>  <r_epik_Charging_Adjusted_Penalty>  (1) 
0

>  <r_epik_Ionization_Penalty>  (1) 
1.5229185111393156e-11

>  <r_epik_Ionization_Penalty_Charging>  (1) 
0

>  <r_epik_Ionization_Penalty_Neutral>  (1) 
1.5229185111393156e-11

>  <r_epik_State_Penalty>  (1) 
-0

>  <r_glide_ring_energy>  (1) 
0.00023819064548269558

>  <r_i_docking_score>  (1) 
-3.9919290114342854

>  <r_i_glide_ecoul>  (1) 
-0.66322932146591418

>  <r_i_glide_eff_state_penalty>  (1) 
-0

>  <r_i_glide_einternal>  (1) 
0

>  <r_i_glide_emodel>  (1) 
-19.074434775758355

>  <r_i_glide_emodel_strain>  (1) 
0

>  <r_i_glide_energy>  (1) 
-15.273327294936955

>  <r_i_glide_erotb>  (1) 
0

>  <r_i_glide_esite>  (1) 
0

>  <r_i_glide_evdw>  (1) 
-14.61009797347104

>  <r_i_glide_gscore>  (1) 
-3.9919290114342854

>  <r_i_glide_gscore_strain>  (1) 
0

>  <r_i_glide_hbond>  (1) 
0

>  <r_i_glide_ligand_efficiency>  (1) 
-0.66532150190571426

>  <r_i_glide_ligand_efficiency_ln>  (1) 
-1.4298971868583246

>  <r_i_glide_ligand_efficiency_sa>  (1) 
-1.2089694019668811

>  <r_i_glide_lipo>  (1) 
-0.49527304787417947

>  <r_i_glide_metal>  (1) 
-0

>  <r_i_glide_rewards>  (1) 
-2.666666666666667

>  <r_lp_Energy>  (1) 
2.9645999999999999

>  <r_lp_tautomer_probability>  (1) 
1

>  <s_epik_cmdline>  (1) 
J2VwaWtfcHl0aG9uJywgJy1waHQnLCAnMS4wJywgJy1waCcsICc3LjQnLCAnLXRuJywgJzgnLCAnLW1hJywgJzUwMCcsICctaW1hZScsICc8aW5maWxlLm1hZT4nLCAnLW9tYWUnLCAnPG91dGZpbGUubWFlPic=

>  <s_epik_input>  (1) 
W0NIMl0xT1tDSDJdW0NIMl1bQ0gyXVtDSDJdMQ==

>  <s_glide_docking_method>  (1) 
confgen

>  <s_i_glide_gridfile>  (1) 
gpcr_drd2_6luq_protein_autoprepared_prepared

>  <s_lp_Force_Field>  (1) 
S-OPLS

>  <s_lp_Variant>  (1) 
Pocket2Mol_4-1

>  <s_m_source_file>  (1) 
generated_generic_title2_ligand_Pocket2Mol_2026-06-23_prepared.sdf

>  <GenAI_Model>  (1) 
Pocket2Mol

>  <Protein>  (1) 
generic_title2

$$$$
Pocket2Mol_5
     RDKit          3D

  0  0  0  0  0  0  0  0  0  0999 V3000
M  V30 BEGIN CTAB
M  V30 COUNTS 14 14 0 0 1
M  V30 BEGIN ATOM
M  V30 1 C 10.980291 8.325291 -5.799147 0
M  V30 2 O 9.861531 8.790227 -6.539413 0
M  V30 3 C 10.914913 6.791754 -5.686536 0
M  V30 4 O 10.904269 6.238949 -6.995191 0
M  V30 5 C 9.838840 8.220768 -7.842353 0
M  V30 6 C 9.772318 6.688739 -7.729088 0
M  V30 7 H 11.902874 8.640126 -6.288712 0
M  V30 8 H 10.972005 8.781975 -4.810026 0
M  V30 9 H 11.778161 6.408747 -5.143660 0
M  V30 10 H 10.025507 6.476525 -5.138723 0
M  V30 11 H 8.975540 8.604348 -8.382681 0
M  V30 12 H 10.723246 8.527298 -8.401286 0
M  V30 13 H 8.848775 6.373679 -7.239520 0
M  V30 14 H 9.783099 6.231649 -8.718575 0
M  V30 END ATOM
M  V30 BEGIN BOND
M  V30 1 1 2 1
M  V30 2 1 3 1
M  V30 3 1 4 3
M  V30 4 1 5 2
M  V30 5 1 6 4
M  V30 6 1 6 5
M  V30 7 1 7 1
M  V30 8 1 8 1
M  V30 9 1 9 3
M  V30 10 1 10 3
M  V30 11 1 11 5
M  V30 12 1 12 5
M  V30 13 1 13 6
M  V30 14 1 14 6
M  V30 END BOND
M  V30 END CTAB
M  END
>  <i_epik_Tot_Q>  (1) 
0

>  <i_epik_Tot_abs_Q>  (1) 
0

>  <i_i_glide_confnum>  (1) 
2

>  <i_i_glide_lignum>  (1) 
6

>  <i_i_glide_posenum>  (1) 
94

>  <i_i_glide_rotatable_bonds>  (1) 
0

>  <i_lp_mmshare_version>  (1) 
72125

>  <i_m_source_file_index>  (1) 
6

>  <i_f3d_flags>  (1) 
0

>  <num_sample>  (1) 
50

>  <b_lp_Chiralities_Consistent>  (1) 
1

>  <r_epik_Charging_Adjusted_Penalty>  (1) 
0

>  <r_epik_Ionization_Penalty>  (1) 
8.3894707547109138e-13

>  <r_epik_Ionization_Penalty_Charging>  (1) 
0

>  <r_epik_Ionization_Penalty_Neutral>  (1) 
8.3894707547109138e-13

>  <r_epik_State_Penalty>  (1) 
-0

>  <r_glide_ring_energy>  (1) 
0.00013676017923054334

>  <r_i_docking_score>  (1) 
-3.9550325293714317

>  <r_i_glide_ecoul>  (1) 
-0.6328347290189662

>  <r_i_glide_eff_state_penalty>  (1) 
-0

>  <r_i_glide_einternal>  (1) 
0

>  <r_i_glide_emodel>  (1) 
-18.0765336099983

>  <r_i_glide_emodel_strain>  (1) 
0

>  <r_i_glide_energy>  (1) 
-14.458961683989811

>  <r_i_glide_erotb>  (1) 
0

>  <r_i_glide_esite>  (1) 
0

>  <r_i_glide_evdw>  (1) 
-13.826126954970844

>  <r_i_glide_gscore>  (1) 
-3.9550325293714317

>  <r_i_glide_gscore_strain>  (1) 
0

>  <r_i_glide_hbond>  (1) 
0

>  <r_i_glide_ligand_efficiency>  (1) 
-0.65917208822857198

>  <r_i_glide_ligand_efficiency_ln>  (1) 
-1.416680975909802

>  <r_i_glide_ligand_efficiency_sa>  (1) 
-1.1977951757403023

>  <r_i_glide_lipo>  (1) 
-0.57894696661929657

>  <r_i_glide_metal>  (1) 
-0

>  <r_i_glide_rewards>  (1) 
-2.5898540056507477

>  <r_lp_Energy>  (1) 
4.9648199999999996

>  <r_lp_tautomer_probability>  (1) 
1

>  <s_epik_cmdline>  (1) 
J2VwaWtfcHl0aG9uJywgJy1waHQnLCAnMS4wJywgJy1waCcsICc3LjQnLCAnLXRuJywgJzgnLCAnLW1hJywgJzUwMCcsICctaW1hZScsICc8aW5maWxlLm1hZT4nLCAnLW9tYWUnLCAnPG91dGZpbGUubWFlPic=

>  <s_epik_input>  (1) 
W0NIMl0xT1tDSDJdW0NIMl1PW0NIMl0x

>  <s_glide_docking_method>  (1) 
confgen

>  <s_i_glide_gridfile>  (1) 
gpcr_drd2_6luq_protein_autoprepared_prepared

>  <s_lp_Force_Field>  (1) 
S-OPLS

>  <s_lp_Variant>  (1) 
Pocket2Mol_5-1

>  <s_m_source_file>  (1) 
generated_generic_title2_ligand_Pocket2Mol_2026-06-23_prepared.sdf

>  <GenAI_Model>  (1) 
Pocket2Mol

>  <Protein>  (1) 
generic_title2

$$$$
Pocket2Mol_43
     RDKit          3D

  0  0  0  0  0  0  0  0  0  0999 V3000
M  V30 BEGIN CTAB
M  V30 COUNTS 8 8 0 0 1
M  V30 BEGIN ATOM
M  V30 1 N 10.921278 8.585200 -6.258003 0
M  V30 2 C 9.724814 8.081862 -6.785025 0
M  V30 3 C 9.775408 7.918982 -8.155081 0
M  V30 4 C 11.841141 8.790316 -7.191397 0
M  V30 5 S 11.330899 8.390226 -8.806123 0
M  V30 6 H 8.896316 7.873286 -6.124589 0
M  V30 7 H 8.995301 7.555963 -8.812623 0
M  V30 8 H 12.813307 9.181381 -6.929033 0
M  V30 END ATOM
M  V30 BEGIN BOND
M  V30 1 1 2 1
M  V30 2 2 3 2
M  V30 3 2 4 1
M  V30 4 1 5 3
M  V30 5 1 5 4
M  V30 6 1 6 2
M  V30 7 1 7 3
M  V30 8 1 8 4
M  V30 END BOND
M  V30 END CTAB
M  END
>  <i_epik_Tot_Q>  (1) 
0

>  <i_epik_Tot_abs_Q>  (1) 
0

>  <i_i_glide_confnum>  (1) 
1

>  <i_i_glide_lignum>  (1) 
48

>  <i_i_glide_posenum>  (1) 
253

>  <i_i_glide_rotatable_bonds>  (1) 
0

>  <i_lp_mmshare_version>  (1) 
72125

>  <i_m_source_file_index>  (1) 
44

>  <i_f3d_flags>  (1) 
0

>  <num_sample>  (1) 
50

>  <b_lp_Chiralities_Consistent>  (1) 
1

>  <r_epik_Charging_Adjusted_Penalty>  (1) 
0

>  <r_epik_Ionization_Penalty>  (1) 
1.4882382677604034e-05

>  <r_epik_Ionization_Penalty_Charging>  (1) 
0

>  <r_epik_Ionization_Penalty_Neutral>  (1) 
1.4882382677604034e-05

>  <r_epik_State_Penalty>  (1) 
-0

>  <r_glide_ring_energy>  (1) 
0

>  <r_i_docking_score>  (1) 
-3.9534075737954657

>  <r_i_glide_ecoul>  (1) 
-1.6270798779532138

>  <r_i_glide_eff_state_penalty>  (1) 
-0

>  <r_i_glide_einternal>  (1) 
0

>  <r_i_glide_emodel>  (1) 
-19.589396126504099

>  <r_i_glide_emodel_strain>  (1) 
0

>  <r_i_glide_energy>  (1) 
-15.542410335535818

>  <r_i_glide_erotb>  (1) 
0

>  <r_i_glide_esite>  (1) 
0

>  <r_i_glide_evdw>  (1) 
-13.915330457582604

>  <r_i_glide_gscore>  (1) 
-3.9534075737954657

>  <r_i_glide_gscore_strain>  (1) 
0

>  <r_i_glide_hbond>  (1) 
0

>  <r_i_glide_ligand_efficiency>  (1) 
-0.7906815147590931

>  <r_i_glide_ligand_efficiency_ln>  (1) 
-1.515041823741919

>  <r_i_glide_ligand_efficiency_sa>  (1) 
-1.3520463717199451

>  <r_i_glide_lipo>  (1) 
-0.44691240255668702

>  <r_i_glide_metal>  (1) 
-0

>  <r_i_glide_rewards>  (1) 
-2.5666666666666664

>  <r_lp_Energy>  (1) 
1.6688799999999999

>  <r_lp_tautomer_probability>  (1) 
1

>  <s_epik_cmdline>  (1) 
J2VwaWtfcHl0aG9uJywgJy1waHQnLCAnMS4wJywgJy1waCcsICc3LjQnLCAnLXRuJywgJzgnLCAnLW1hJywgJzUwMCcsICctaW1hZScsICc8aW5maWxlLm1hZT4nLCAnLW9tYWUnLCAnPG91dGZpbGUubWFlPic=

>  <s_epik_input>  (1) 
bjFbY0hdW2NIXXNbY0hdMQ==

>  <s_glide_docking_method>  (1) 
confgen

>  <s_i_glide_gridfile>  (1) 
gpcr_drd2_6luq_protein_autoprepared_prepared

>  <s_lp_Force_Field>  (1) 
S-OPLS

>  <s_lp_Variant>  (1) 
Pocket2Mol_43-1

>  <s_m_source_file>  (1) 
generated_generic_title2_ligand_Pocket2Mol_2026-06-23_prepared.sdf

>  <GenAI_Model>  (1) 
Pocket2Mol

>  <Protein>  (1) 
generic_title2

$$$$
Pocket2Mol_0
     RDKit          3D

  0  0  0  0  0  0  0  0  0  0999 V3000
M  V30 BEGIN CTAB
M  V30 COUNTS 10 10 0 0 1
M  V30 BEGIN ATOM
M  V30 1 N 10.575595 8.836462 -6.579458 0
M  V30 2 C 10.993279 8.007581 -5.585026 0
M  V30 3 C 10.575238 6.786139 -5.681523 0
M  V30 4 C 9.858486 7.990659 -7.267268 0
M  V30 5 C 9.719350 6.480943 -6.836888 0
M  V30 6 H 11.625200 8.396932 -4.800453 0
M  V30 7 H 10.823874 6.014537 -4.966687 0
M  V30 8 H 9.316590 8.278962 -8.173003 0
M  V30 9 H 8.695174 6.216288 -6.572892 0
M  V30 10 H 10.170797 5.795422 -7.554631 0
M  V30 END ATOM
M  V30 BEGIN BOND
M  V30 1 1 2 1
M  V30 2 2 3 2
M  V30 3 2 4 1
M  V30 4 1 5 3
M  V30 5 1 5 4
M  V30 6 1 6 2
M  V30 7 1 7 3
M  V30 8 1 8 4
M  V30 9 1 9 5
M  V30 10 1 10 5
M  V30 END BOND
M  V30 END CTAB
M  END
>  <i_epik_Tot_Q>  (1) 
0

>  <i_epik_Tot_abs_Q>  (1) 
0

>  <i_i_glide_confnum>  (1) 
1

>  <i_i_glide_lignum>  (1) 
1

>  <i_i_glide_posenum>  (1) 
165

>  <i_i_glide_rotatable_bonds>  (1) 
0

>  <i_lp_mmshare_version>  (1) 
72125

>  <i_m_source_file_index>  (1) 
1

>  <i_f3d_flags>  (1) 
0

>  <num_sample>  (1) 
50

>  <b_lp_Chiralities_Consistent>  (1) 
1

>  <r_epik_Charging_Adjusted_Penalty>  (1) 
0

>  <r_epik_Ionization_Penalty>  (1) 
0

>  <r_epik_Ionization_Penalty_Charging>  (1) 
0

>  <r_epik_Ionization_Penalty_Neutral>  (1) 
0

>  <r_epik_State_Penalty>  (1) 
-0

>  <r_glide_ring_energy>  (1) 
0

>  <r_i_docking_score>  (1) 
-3.9525242530156741

>  <r_i_glide_ecoul>  (1) 
-1.519785306028032

>  <r_i_glide_eff_state_penalty>  (1) 
-0

>  <r_i_glide_einternal>  (1) 
0

>  <r_i_glide_emodel>  (1) 
-17.734216465750194

>  <r_i_glide_emodel_strain>  (1) 
0

>  <r_i_glide_energy>  (1) 
-14.010381218891565

>  <r_i_glide_erotb>  (1) 
0

>  <r_i_glide_esite>  (1) 
-0.028388903154742337

>  <r_i_glide_evdw>  (1) 
-12.490595912863533

>  <r_i_glide_gscore>  (1) 
-3.9525242530156741

>  <r_i_glide_gscore_strain>  (1) 
0

>  <r_i_glide_hbond>  (1) 
0

>  <r_i_glide_ligand_efficiency>  (1) 
-0.7905048506031348

>  <r_i_glide_ligand_efficiency_ln>  (1) 
-1.5147033137602932

>  <r_i_glide_ligand_efficiency_sa>  (1) 
-1.3517442802626165

>  <r_i_glide_lipo>  (1) 
-0.53830442498021713

>  <r_i_glide_metal>  (1) 
-0

>  <r_i_glide_rewards>  (1) 
-2.5333333333333332

>  <r_lp_Energy>  (1) 
-2.9532909999999997

>  <r_lp_tautomer_probability>  (1) 
1

>  <s_epik_Chemistry_Notes>  (1) 
This compound has an imine and may undergo hydrolysis.

>  <s_epik_cmdline>  (1) 
J2VwaWtfcHl0aG9uJywgJy1waHQnLCAnMS4wJywgJy1waCcsICc3LjQnLCAnLXRuJywgJzgnLCAnLW1hJywgJzUwMCcsICctaW1hZScsICc8aW5maWxlLm1hZT4nLCAnLW9tYWUnLCAnPG91dGZpbGUubWFlPic=

>  <s_epik_input>  (1) 
TjE9W0NIXVtDSDJdW0NIXT1bQ0hdMQ==

>  <s_glide_docking_method>  (1) 
confgen

>  <s_i_glide_gridfile>  (1) 
gpcr_drd2_6luq_protein_autoprepared_prepared

>  <s_lp_Force_Field>  (1) 
S-OPLS

>  <s_lp_Variant>  (1) 
Pocket2Mol_0-1

>  <s_m_source_file>  (1) 
generated_generic_title2_ligand_Pocket2Mol_2026-06-23_prepared.sdf

>  <GenAI_Model>  (1) 
Pocket2Mol

>  <Protein>  (1) 
generic_title2

$$$$
Pocket2Mol_32
     RDKit          3D

  0  0  0  0  0  0  0  0  0  0999 V3000
M  V30 BEGIN CTAB
M  V30 COUNTS 12 12 0 0 1
M  V30 BEGIN ATOM
M  V30 1 N 9.775404 7.445185 -8.722599 0
M  V30 2 C 10.868798 8.108860 -9.032199 0
M  V30 3 C 11.772211 8.048044 -8.121837 0
M  V30 4 C 11.375409 7.244957 -6.897024 0
M  V30 5 C 9.834555 6.861190 -7.370397 0
M  V30 6 H 10.900617 8.630957 -9.978191 0
M  V30 7 H 12.005145 6.362472 -6.781434 0
M  V30 8 H 11.396117 7.847908 -5.989329 0
M  V30 9 H 9.668742 5.783758 -7.396612 0
M  V30 10 H 9.078217 7.319240 -6.730327 0
M  V30 11 H 12.736664 8.531045 -8.188705 0
M  V30 12 H 8.874615 7.607179 -9.179917 0
M  V30 END ATOM
M  V30 BEGIN BOND
M  V30 1 1 2 1
M  V30 2 2 3 2
M  V30 3 1 4 3
M  V30 4 1 5 1
M  V30 5 1 5 4
M  V30 6 1 6 2
M  V30 7 1 7 4
M  V30 8 1 8 4
M  V30 9 1 9 5
M  V30 10 1 10 5
M  V30 11 1 11 3
M  V30 12 1 12 1
M  V30 END BOND
M  V30 END CTAB
M  END
>  <i_epik_Tot_Q>  (1) 
0

>  <i_epik_Tot_abs_Q>  (1) 
0

>  <i_i_glide_confnum>  (1) 
1

>  <i_i_glide_lignum>  (1) 
36

>  <i_i_glide_posenum>  (1) 
372

>  <i_i_glide_rotatable_bonds>  (1) 
0

>  <i_lp_mmshare_version>  (1) 
72125

>  <i_m_source_file_index>  (1) 
33

>  <i_f3d_flags>  (1) 
0

>  <num_sample>  (1) 
50

>  <b_lp_Chiralities_Consistent>  (1) 
1

>  <r_epik_Charging_Adjusted_Penalty>  (1) 
1.6042444336516156e-06

>  <r_epik_Ionization_Penalty>  (1) 
0.0023556498582944039

>  <r_epik_Ionization_Penalty_Charging>  (1) 
1.6042444336516156e-06

>  <r_epik_Ionization_Penalty_Neutral>  (1) 
0.0023540456138607521

>  <r_epik_State_Penalty>  (1) 
-0

>  <r_glide_ring_energy>  (1) 
0

>  <r_i_docking_score>  (1) 
-3.9426954512948238

>  <r_i_glide_ecoul>  (1) 
-2.5803628141315733

>  <r_i_glide_eff_state_penalty>  (1) 
-0

>  <r_i_glide_einternal>  (1) 
0

>  <r_i_glide_emodel>  (1) 
-17.694146425899227

>  <r_i_glide_emodel_strain>  (1) 
0

>  <r_i_glide_energy>  (1) 
-13.759918454819466

>  <r_i_glide_erotb>  (1) 
0

>  <r_i_glide_esite>  (1) 
-0.10000000000000001

>  <r_i_glide_evdw>  (1) 
-11.179555640687893

>  <r_i_glide_gscore>  (1) 
-3.9426954512948238

>  <r_i_glide_gscore_strain>  (1) 
0

>  <r_i_glide_hbond>  (1) 
-0.16

>  <r_i_glide_ligand_efficiency>  (1) 
-0.78853909025896474

>  <r_i_glide_ligand_efficiency_ln>  (1) 
-1.5109366781664684

>  <r_i_glide_ligand_efficiency_sa>  (1) 
-1.3483828773571547

>  <r_i_glide_lipo>  (1) 
-0.48666324714069331

>  <r_i_glide_metal>  (1) 
-0

>  <r_i_glide_rewards>  (1) 
-2.25

>  <r_lp_Energy>  (1) 
2.9163329999999998

>  <r_lp_tautomer_probability>  (1) 
1

>  <s_epik_Chemistry_Notes>  (1) 
This compound has an imine and may undergo hydrolysis.

>  <s_epik_cmdline>  (1) 
J2VwaWtfcHl0aG9uJywgJy1waHQnLCAnMS4wJywgJy1waCcsICc3LjQnLCAnLXRuJywgJzgnLCAnLW1hJywgJzUwMCcsICctaW1hZScsICc8aW5maWxlLm1hZT4nLCAnLW9tYWUnLCAnPG91dGZpbGUubWFlPic=

>  <s_epik_input>  (1) 
W05IXTFbQ0hdPVtDSF1bQ0gyXVtDSDJdMQ==

>  <s_glide_docking_method>  (1) 
confgen

>  <s_i_glide_gridfile>  (1) 
gpcr_drd2_6luq_protein_autoprepared_prepared

>  <s_lp_Force_Field>  (1) 
S-OPLS

>  <s_lp_Variant>  (1) 
Pocket2Mol_32-1

>  <s_m_source_file>  (1) 
generated_generic_title2_ligand_Pocket2Mol_2026-06-23_prepared.sdf

>  <GenAI_Model>  (1) 
Pocket2Mol

>  <Protein>  (1) 
generic_title2

$$$$
Pocket2Mol_8
     RDKit          3D

  0  0  0  0  0  0  0  0  0  0999 V3000
M  V30 BEGIN CTAB
M  V30 COUNTS 13 13 0 0 1
M  V30 BEGIN ATOM
M  V30 1 N 9.397777 7.760412 -8.999457 0 CHG=1
M  V30 2 C 10.381525 7.790359 -9.951585 0
M  V30 3 C 11.566045 8.018618 -9.294343 0
M  V30 4 C 9.924924 7.959976 -7.788501 0
M  V30 5 C 12.965029 8.152411 -9.791875 0
M  V30 6 N 11.241126 8.116990 -7.964522 0
M  V30 7 H 10.173577 7.650478 -11.003254 0
M  V30 8 H 9.393979 7.988875 -6.852299 0
M  V30 9 H 12.995151 8.040865 -10.876215 0
M  V30 10 H 13.367129 9.132588 -9.534317 0
M  V30 11 H 13.600526 7.385593 -9.348120 0
M  V30 12 H 11.905175 8.285261 -7.217892 0
M  V30 13 H 8.411871 7.609065 -9.185043 0
M  V30 END ATOM
M  V30 BEGIN BOND
M  V30 1 1 2 1
M  V30 2 2 3 2
M  V30 3 2 4 1
M  V30 4 1 5 3
M  V30 5 1 6 3
M  V30 6 1 6 4
M  V30 7 1 7 2
M  V30 8 1 8 4
M  V30 9 1 9 5
M  V30 10 1 10 5
M  V30 11 1 11 5
M  V30 12 1 12 6
M  V30 13 1 13 1
M  V30 END BOND
M  V30 END CTAB
M  END
>  <i_epik_Tot_Q>  (1) 
1

>  <i_epik_Tot_abs_Q>  (1) 
1

>  <i_i_glide_confnum>  (1) 
1

>  <i_i_glide_lignum>  (1) 
10

>  <i_i_glide_posenum>  (1) 
130

>  <i_i_glide_rotatable_bonds>  (1) 
0

>  <i_lp_mmshare_version>  (1) 
72125

>  <i_m_source_file_index>  (1) 
9

>  <i_f3d_flags>  (1) 
0

>  <num_sample>  (1) 
50

>  <b_lp_Chiralities_Consistent>  (1) 
1

>  <r_epik_Charging_Adjusted_Penalty>  (1) 
0.63910500234431922

>  <r_epik_Ionization_Penalty>  (1) 
0.82018112513013652

>  <r_epik_Ionization_Penalty_Charging>  (1) 
0

>  <r_epik_Ionization_Penalty_Neutral>  (1) 
0.82018112513013652

>  <r_epik_State_Penalty>  (1) 
0.63910500234431922

>  <r_glide_ring_energy>  (1) 
0

>  <r_i_docking_score>  (1) 
-3.9290156108128986

>  <r_i_glide_ecoul>  (1) 
-9.5588154330377186

>  <r_i_glide_eff_state_penalty>  (1) 
0.63910500234431922

>  <r_i_glide_einternal>  (1) 
0

>  <r_i_glide_emodel>  (1) 
-24.28901101068405

>  <r_i_glide_emodel_strain>  (1) 
0

>  <r_i_glide_energy>  (1) 
-15.778447411008603

>  <r_i_glide_erotb>  (1) 
0

>  <r_i_glide_esite>  (1) 
-0.15183112380633876

>  <r_i_glide_evdw>  (1) 
-6.2196319779708835

>  <r_i_glide_gscore>  (1) 
-4.5681206131572178

>  <r_i_glide_gscore_strain>  (1) 
0

>  <r_i_glide_hbond>  (1) 
-0.18447028291394879

>  <r_i_glide_ligand_efficiency>  (1) 
-0.6548359351354831

>  <r_i_glide_ligand_efficiency_ln>  (1) 
-1.4073617924897035

>  <r_i_glide_ligand_efficiency_sa>  (1) 
-1.1899158626611777

>  <r_i_glide_lipo>  (1) 
-0.23701529258272888

>  <r_i_glide_metal>  (1) 
-0

>  <r_i_glide_rewards>  (1) 
-2.25

>  <r_lp_Energy>  (1) 
7.4764169999999996

>  <r_lp_tautomer_probability>  (1) 
1

>  <s_epik_cmdline>  (1) 
J2VwaWtfcHl0aG9uJywgJy1waHQnLCAnMS4wJywgJy1waCcsICc3LjQnLCAnLXRuJywgJzgnLCAnLW1hJywgJzUwMCcsICctaW1hZScsICc8aW5maWxlLm1hZT4nLCAnLW9tYWUnLCAnPG91dGZpbGUubWFlPic=

>  <s_epik_input>  (1) 
W25IXTFbY0hdbltjSF1jMVtDSDNd

>  <s_glide_docking_method>  (1) 
confgen

>  <s_i_glide_gridfile>  (1) 
gpcr_drd2_6luq_protein_autoprepared_prepared

>  <s_lp_Force_Field>  (1) 
S-OPLS

>  <s_lp_Variant>  (1) 
Pocket2Mol_8-2

>  <s_m_source_file>  (1) 
generated_generic_title2_ligand_Pocket2Mol_2026-06-23_prepared.sdf

>  <GenAI_Model>  (1) 
Pocket2Mol

>  <Protein>  (1) 
generic_title2

$$$$
Pocket2Mol_45
     RDKit          3D

  0  0  0  0  0  0  0  0  0  0999 V3000
M  V30 BEGIN CTAB
M  V30 COUNTS 13 13 0 0 1
M  V30 BEGIN ATOM
M  V30 1 O 10.175112 8.790131 -5.985472 0
M  V30 2 C 9.582004 7.990227 -7.002120 0
M  V30 3 C 10.767798 7.344634 -7.706619 0
M  V30 4 C 11.496025 9.163596 -6.362958 0
M  V30 5 C 11.775293 8.475563 -7.700529 0
M  V30 6 H 8.885558 7.260233 -6.585350 0
M  V30 7 H 9.028257 8.634513 -7.688755 0
M  V30 8 H 11.139822 6.501770 -7.121372 0
M  V30 9 H 10.523990 6.988094 -8.708050 0
M  V30 10 H 11.596573 10.247368 -6.428227 0
M  V30 11 H 12.175262 8.808819 -5.589095 0
M  V30 12 H 11.565619 9.161162 -8.523247 0
M  V30 13 H 12.806296 8.133954 -7.799207 0
M  V30 END ATOM
M  V30 BEGIN BOND
M  V30 1 1 2 1
M  V30 2 1 3 2
M  V30 3 1 4 1
M  V30 4 1 5 3
M  V30 5 1 5 4
M  V30 6 1 6 2
M  V30 7 1 7 2
M  V30 8 1 8 3
M  V30 9 1 9 3
M  V30 10 1 10 4
M  V30 11 1 11 4
M  V30 12 1 12 5
M  V30 13 1 13 5
M  V30 END BOND
M  V30 END CTAB
M  END
>  <i_epik_Tot_Q>  (1) 
0

>  <i_epik_Tot_abs_Q>  (1) 
0

>  <i_i_glide_confnum>  (1) 
4

>  <i_i_glide_lignum>  (1) 
51

>  <i_i_glide_posenum>  (1) 
253

>  <i_i_glide_rotatable_bonds>  (1) 
0

>  <i_lp_mmshare_version>  (1) 
72125

>  <i_m_source_file_index>  (1) 
46

>  <i_f3d_flags>  (1) 
0

>  <num_sample>  (1) 
50

>  <b_lp_Chiralities_Consistent>  (1) 
1

>  <r_epik_Charging_Adjusted_Penalty>  (1) 
0

>  <r_epik_Ionization_Penalty>  (1) 
1.3889264151150229e-11

>  <r_epik_Ionization_Penalty_Charging>  (1) 
0

>  <r_epik_Ionization_Penalty_Neutral>  (1) 
1.3889264151150229e-11

>  <r_epik_State_Penalty>  (1) 
-0

>  <r_glide_ring_energy>  (1) 
0.22164722245690596

>  <r_i_docking_score>  (1) 
-3.909632179395965

>  <r_i_glide_ecoul>  (1) 
-0.73589221639103752

>  <r_i_glide_eff_state_penalty>  (1) 
-0

>  <r_i_glide_einternal>  (1) 
0

>  <r_i_glide_emodel>  (1) 
-16.412917948366584

>  <r_i_glide_emodel_strain>  (1) 
0.0013510832424028507

>  <r_i_glide_energy>  (1) 
-13.034990777286941

>  <r_i_glide_erotb>  (1) 
0

>  <r_i_glide_esite>  (1) 
0

>  <r_i_glide_evdw>  (1) 
-12.299098560895903

>  <r_i_glide_gscore>  (1) 
-3.909632179395965

>  <r_i_glide_gscore_strain>  (1) 
0

>  <r_i_glide_hbond>  (1) 
0

>  <r_i_glide_ligand_efficiency>  (1) 
-0.78192643587919297

>  <r_i_glide_ligand_efficiency_ln>  (1) 
-1.4982660291576106

>  <r_i_glide_ligand_efficiency_sa>  (1) 
-1.3370753974240586

>  <r_i_glide_lipo>  (1) 
-0.62596008555918026

>  <r_i_glide_metal>  (1) 
-0

>  <r_i_glide_rewards>  (1) 
-2.5583333333333336

>  <r_lp_Energy>  (1) 
3.9173999999999998

>  <r_lp_tautomer_probability>  (1) 
1

>  <s_epik_cmdline>  (1) 
J2VwaWtfcHl0aG9uJywgJy1waHQnLCAnMS4wJywgJy1waCcsICc3LjQnLCAnLXRuJywgJzgnLCAnLW1hJywgJzUwMCcsICctaW1hZScsICc8aW5maWxlLm1hZT4nLCAnLW9tYWUnLCAnPG91dGZpbGUubWFlPic=

>  <s_epik_input>  (1) 
TzFbQ0gyXVtDSDJdW0NIMl1bQ0gyXTE=

>  <s_glide_docking_method>  (1) 
confgen

>  <s_i_glide_gridfile>  (1) 
gpcr_drd2_6luq_protein_autoprepared_prepared

>  <s_lp_Force_Field>  (1) 
S-OPLS

>  <s_lp_Variant>  (1) 
Pocket2Mol_45-1

>  <s_m_source_file>  (1) 
generated_generic_title2_ligand_Pocket2Mol_2026-06-23_prepared.sdf

>  <GenAI_Model>  (1) 
Pocket2Mol

>  <Protein>  (1) 
generic_title2

$$$$
Pocket2Mol_44
     RDKit          3D

  0  0  0  0  0  0  0  0  0  0999 V3000
M  V30 BEGIN CTAB
M  V30 COUNTS 15 16 0 0 1
M  V30 BEGIN ATOM
M  V30 1 C 9.774745 7.477975 -7.439190 0
M  V30 2 O 10.353203 8.790227 -7.140297 0
M  V30 3 C 10.946846 8.505524 -5.980288 0
M  V30 4 C 10.809312 7.238747 -5.588841 0
M  V30 5 C 11.375768 6.790224 -4.385025 0
M  V30 6 N 12.073787 7.672040 -3.623331 0 CHG=1
M  V30 7 C 12.236302 8.973529 -3.985025 0
M  V30 8 C 11.664990 9.434139 -5.199819 0
M  V30 9 O 10.103552 6.475190 -6.425043 0
M  V30 10 H 10.133752 7.138361 -8.411685 0
M  V30 11 H 8.688182 7.573502 -7.494571 0
M  V30 12 H 11.300273 5.785210 -4.009695 0
M  V30 13 H 12.807065 9.590228 -3.305661 0
M  V30 14 H 11.775409 10.460333 -5.517378 0
M  V30 15 H 12.487041 7.347593 -2.747616 0
M  V30 END ATOM
M  V30 BEGIN BOND
M  V30 1 1 2 1
M  V30 2 1 3 2
M  V30 3 2 4 3
M  V30 4 1 5 4
M  V30 5 2 6 5
M  V30 6 1 7 6
M  V30 7 1 8 3
M  V30 8 2 8 7
M  V30 9 1 9 1
M  V30 10 1 9 4
M  V30 11 1 10 1
M  V30 12 1 11 1
M  V30 13 1 12 5
M  V30 14 1 13 7
M  V30 15 1 14 8
M  V30 16 1 15 6
M  V30 END BOND
M  V30 END CTAB
M  END
>  <i_epik_Tot_Q>  (1) 
1

>  <i_epik_Tot_abs_Q>  (1) 
1

>  <i_i_glide_confnum>  (1) 
1

>  <i_i_glide_lignum>  (1) 
50

>  <i_i_glide_posenum>  (1) 
303

>  <i_i_glide_rotatable_bonds>  (1) 
0

>  <i_lp_mmshare_version>  (1) 
72125

>  <i_m_source_file_index>  (1) 
45

>  <i_f3d_flags>  (1) 
0

>  <num_sample>  (1) 
50

>  <b_lp_Chiralities_Consistent>  (1) 
1

>  <r_epik_Charging_Adjusted_Penalty>  (1) 
2.6035637255513002

>  <r_epik_Ionization_Penalty>  (1) 
1.3017818627756499

>  <r_epik_Ionization_Penalty_Charging>  (1) 
1.3017818627756499

>  <r_epik_Ionization_Penalty_Neutral>  (1) 
0

>  <r_epik_State_Penalty>  (1) 
1.3017818627756503

>  <r_glide_ring_energy>  (1) 
0

>  <r_i_docking_score>  (1) 
-3.8997872956738355

>  <r_i_glide_ecoul>  (1) 
-1.4089185199522392

>  <r_i_glide_eff_state_penalty>  (1) 
1.3017818627756503

>  <r_i_glide_einternal>  (1) 
0

>  <r_i_glide_emodel>  (1) 
-28.464025871569355

>  <r_i_glide_emodel_strain>  (1) 
0

>  <r_i_glide_energy>  (1) 
-18.728350035723317

>  <r_i_glide_erotb>  (1) 
0

>  <r_i_glide_esite>  (1) 
-0.06404127517226979

>  <r_i_glide_evdw>  (1) 
-17.319431515771079

>  <r_i_glide_gscore>  (1) 
-5.2015691584494856

>  <r_i_glide_gscore_strain>  (1) 
0

>  <r_i_glide_hbond>  (1) 
0

>  <r_i_glide_ligand_efficiency>  (1) 
-0.43330969951931508

>  <r_i_glide_ligand_efficiency_ln>  (1) 
-1.2197414355306122

>  <r_i_glide_ligand_efficiency_sa>  (1) 
-0.90132049634160882

>  <r_i_glide_lipo>  (1) 
-1.4234693231256907

>  <r_i_glide_metal>  (1) 
-0

>  <r_i_glide_rewards>  (1) 
-2.6367492063701357

>  <r_lp_Energy>  (1) 
25.893000999999998

>  <s_epik_Chemistry_Notes>  (1) 
This compound contains an acetal/aminal-like group ( X-CH(R)-Y where X, Y are N, S, or O) that may be acid/base labile, releasing an aldehyde.

>  <s_epik_cmdline>  (1) 
J2VwaWtfcHl0aG9uJywgJy1waHQnLCAnMS4wJywgJy1waCcsICc3LjQnLCAnLXRuJywgJzgnLCAnLW1hJywgJzUwMCcsICctaW1hZScsICc8aW5maWxlLm1hZT4nLCAnLW9tYWUnLCAnPG91dGZpbGUubWFlPic=

>  <s_epik_input>  (1) 
TzFbQ0gyXU9jKGMxMilbY0hdbltjSF1bY0hdMg==

>  <s_glide_docking_method>  (1) 
confgen

>  <s_i_glide_gridfile>  (1) 
gpcr_drd2_6luq_protein_autoprepared_prepared

>  <s_lp_Force_Field>  (1) 
S-OPLS

>  <s_lp_Variant>  (1) 
Pocket2Mol_44-2

>  <s_m_source_file>  (1) 
generated_generic_title2_ligand_Pocket2Mol_2026-06-23_prepared.sdf

>  <GenAI_Model>  (1) 
Pocket2Mol

>  <Protein>  (1) 
generic_title2

$$$$
Pocket2Mol_0
     RDKit          3D

  0  0  0  0  0  0  0  0  0  0999 V3000
M  V30 BEGIN CTAB
M  V30 COUNTS 10 10 0 0 1
M  V30 BEGIN ATOM
M  V30 1 N 10.592033 8.563888 -6.318298 0
M  V30 2 C 11.641884 8.789778 -7.160599 0
M  V30 3 C 11.463673 8.382525 -8.380432 0
M  V30 4 C 9.775410 7.990414 -7.159472 0
M  V30 5 C 10.174128 7.745140 -8.668751 0
M  V30 6 H 12.528829 9.278770 -6.782389 0
M  V30 7 H 12.203641 8.495699 -9.159771 0
M  V30 8 H 8.776397 7.651857 -6.870629 0
M  V30 9 H 10.245368 6.685329 -8.913398 0
M  V30 10 H 9.548821 8.307063 -9.363978 0
M  V30 END ATOM
M  V30 BEGIN BOND
M  V30 1 1 2 1
M  V30 2 2 3 2
M  V30 3 2 4 1
M  V30 4 1 5 3
M  V30 5 1 5 4
M  V30 6 1 6 2
M  V30 7 1 7 3
M  V30 8 1 8 4
M  V30 9 1 9 5
M  V30 10 1 10 5
M  V30 END BOND
M  V30 END CTAB
M  END
>  <i_epik_Tot_Q>  (1) 
0

>  <i_epik_Tot_abs_Q>  (1) 
0

>  <i_i_glide_confnum>  (1) 
1

>  <i_i_glide_lignum>  (1) 
1

>  <i_i_glide_posenum>  (1) 
196

>  <i_i_glide_rotatable_bonds>  (1) 
0

>  <i_lp_mmshare_version>  (1) 
72125

>  <i_m_source_file_index>  (1) 
1

>  <i_f3d_flags>  (1) 
0

>  <num_sample>  (1) 
50

>  <b_lp_Chiralities_Consistent>  (1) 
1

>  <r_epik_Charging_Adjusted_Penalty>  (1) 
0

>  <r_epik_Ionization_Penalty>  (1) 
0

>  <r_epik_Ionization_Penalty_Charging>  (1) 
0

>  <r_epik_Ionization_Penalty_Neutral>  (1) 
0

>  <r_epik_State_Penalty>  (1) 
-0

>  <r_glide_ring_energy>  (1) 
0

>  <r_i_docking_score>  (1) 
-3.8929748957100463

>  <r_i_glide_ecoul>  (1) 
-1.2818929847950473

>  <r_i_glide_eff_state_penalty>  (1) 
-0

>  <r_i_glide_einternal>  (1) 
0

>  <r_i_glide_emodel>  (1) 
-17.883334613644379

>  <r_i_glide_emodel_strain>  (1) 
0

>  <r_i_glide_energy>  (1) 
-14.215603259252262

>  <r_i_glide_erotb>  (1) 
0

>  <r_i_glide_esite>  (1) 
-0.030062482829201514

>  <r_i_glide_evdw>  (1) 
-12.933710274457214

>  <r_i_glide_gscore>  (1) 
-3.8929748957100463

>  <r_i_glide_gscore_strain>  (1) 
0

>  <r_i_glide_hbond>  (1) 
0

>  <r_i_glide_ligand_efficiency>  (1) 
-0.77859497914200926

>  <r_i_glide_ligand_efficiency_ln>  (1) 
-1.4918825533881563

>  <r_i_glide_ligand_efficiency_sa>  (1) 
-1.3313786865360804

>  <r_i_glide_lipo>  (1) 
-0.4406096181053934

>  <r_i_glide_metal>  (1) 
-0

>  <r_i_glide_rewards>  (1) 
-2.5833333333333335

>  <r_lp_Energy>  (1) 
-2.9532909999999997

>  <r_lp_tautomer_probability>  (1) 
1

>  <s_epik_Chemistry_Notes>  (1) 
This compound has an imine and may undergo hydrolysis.

>  <s_epik_cmdline>  (1) 
J2VwaWtfcHl0aG9uJywgJy1waHQnLCAnMS4wJywgJy1waCcsICc3LjQnLCAnLXRuJywgJzgnLCAnLW1hJywgJzUwMCcsICctaW1hZScsICc8aW5maWxlLm1hZT4nLCAnLW9tYWUnLCAnPG91dGZpbGUubWFlPic=

>  <s_epik_input>  (1) 
TjE9W0NIXVtDSDJdW0NIXT1bQ0hdMQ==

>  <s_glide_docking_method>  (1) 
confgen

>  <s_i_glide_gridfile>  (1) 
gpcr_drd2_6luq_protein_autoprepared_prepared

>  <s_lp_Force_Field>  (1) 
S-OPLS

>  <s_lp_Variant>  (1) 
Pocket2Mol_0-1

>  <s_m_source_file>  (1) 
generated_generic_title2_ligand_Pocket2Mol_2026-06-23_prepared.sdf

>  <GenAI_Model>  (1) 
Pocket2Mol

>  <Protein>  (1) 
generic_title2

$$$$
Pocket2Mol_46
     RDKit          3D

  0  0  0  0  0  0  0  0  0  0999 V3000
M  V30 BEGIN CTAB
M  V30 COUNTS 8 8 0 0 1
M  V30 BEGIN ATOM
M  V30 1 N 11.775410 8.773484 -7.209829 0
M  V30 2 C 10.646707 8.409427 -6.385021 0
M  V30 3 C 9.716619 7.869345 -7.078866 0
M  V30 4 C 10.175410 7.859994 -8.314148 0
M  V30 5 C 11.378969 8.390227 -8.357315 0
M  V30 6 H 10.648827 8.605344 -5.322870 0
M  V30 7 H 8.755382 7.515214 -6.731324 0
M  V30 8 H 9.563828 7.628078 -9.175246 0
M  V30 END ATOM
M  V30 BEGIN BOND
M  V30 1 1 2 1
M  V30 2 2 3 2
M  V30 3 1 4 3
M  V30 4 2 5 1
M  V30 5 2 5 4
M  V30 6 1 6 2
M  V30 7 1 7 3
M  V30 8 1 8 4
M  V30 END BOND
M  V30 END CTAB
M  END
>  <i_epik_Tot_Q>  (1) 
0

>  <i_epik_Tot_abs_Q>  (1) 
0

>  <i_i_glide_confnum>  (1) 
1

>  <i_i_glide_lignum>  (1) 
52

>  <i_i_glide_posenum>  (1) 
38

>  <i_i_glide_rotatable_bonds>  (1) 
0

>  <i_lp_mmshare_version>  (1) 
72125

>  <i_m_source_file_index>  (1) 
47

>  <i_f3d_flags>  (1) 
0

>  <num_sample>  (1) 
50

>  <b_lp_Chiralities_Consistent>  (1) 
1

>  <r_epik_Charging_Adjusted_Penalty>  (1) 
0

>  <r_epik_Ionization_Penalty>  (1) 
0

>  <r_epik_Ionization_Penalty_Charging>  (1) 
0

>  <r_epik_Ionization_Penalty_Neutral>  (1) 
0

>  <r_epik_State_Penalty>  (1) 
-0

>  <r_glide_ring_energy>  (1) 
0

>  <r_i_docking_score>  (1) 
-3.8882747025455346

>  <r_i_glide_ecoul>  (1) 
-0.98223155113370431

>  <r_i_glide_eff_state_penalty>  (1) 
-0

>  <r_i_glide_einternal>  (1) 
0

>  <r_i_glide_emodel>  (1) 
-17.275527317132614

>  <r_i_glide_emodel_strain>  (1) 
0

>  <r_i_glide_energy>  (1) 
-13.774967682146904

>  <r_i_glide_erotb>  (1) 
0

>  <r_i_glide_esite>  (1) 
0

>  <r_i_glide_evdw>  (1) 
-12.7927361310132

>  <r_i_glide_gscore>  (1) 
-3.8882747025455346

>  <r_i_glide_gscore_strain>  (1) 
0

>  <r_i_glide_hbond>  (1) 
0

>  <r_i_glide_ligand_efficiency>  (1) 
-0.77765494050910688

>  <r_i_glide_ligand_efficiency_ln>  (1) 
-1.4900813251841378

>  <r_i_glide_ligand_efficiency_sa>  (1) 
-1.3297712430848707

>  <r_i_glide_lipo>  (1) 
-0.50130316332481883

>  <r_i_glide_metal>  (1) 
-0

>  <r_i_glide_rewards>  (1) 
-2.6000000000000001

>  <r_lp_Energy>  (1) 
4.860805

>  <r_lp_tautomer_probability>  (1) 
1

>  <s_epik_Chemistry_Notes>  (1) 
This compound has an imine and may undergo hydrolysis.

>  <s_epik_cmdline>  (1) 
J2VwaWtfcHl0aG9uJywgJy1waHQnLCAnMS4wJywgJy1waCcsICc3LjQnLCAnLXRuJywgJzgnLCAnLW1hJywgJzUwMCcsICctaW1hZScsICc8aW5maWxlLm1hZT4nLCAnLW9tYWUnLCAnPG91dGZpbGUubWFlPic=

>  <s_epik_input>  (1) 
TjE9Qz1bQ0hdW0NIXT1bQ0hdMQ==

>  <s_glide_docking_method>  (1) 
confgen

>  <s_i_glide_gridfile>  (1) 
gpcr_drd2_6luq_protein_autoprepared_prepared

>  <s_lp_Force_Field>  (1) 
S-OPLS

>  <s_lp_Variant>  (1) 
Pocket2Mol_46-1

>  <s_m_source_file>  (1) 
generated_generic_title2_ligand_Pocket2Mol_2026-06-23_prepared.sdf

>  <GenAI_Model>  (1) 
Pocket2Mol

>  <Protein>  (1) 
generic_title2

$$$$
Pocket2Mol_46
     RDKit          3D

  0  0  0  0  0  0  0  0  0  0999 V3000
M  V30 BEGIN CTAB
M  V30 COUNTS 8 8 0 0 1
M  V30 BEGIN ATOM
M  V30 1 N 11.775174 8.790227 -7.054395 0
M  V30 2 C 11.273674 8.390297 -8.349360 0
M  V30 3 C 10.080175 7.933934 -8.266799 0
M  V30 4 C 9.775501 8.010649 -6.987711 0
M  V30 5 C 10.782598 8.513396 -6.307703 0
M  V30 6 H 11.883403 8.488965 -9.235610 0
M  V30 7 H 9.460320 7.556602 -9.069020 0
M  V30 8 H 8.879123 7.586360 -6.555987 0
M  V30 END ATOM
M  V30 BEGIN BOND
M  V30 1 1 2 1
M  V30 2 2 3 2
M  V30 3 1 4 3
M  V30 4 2 5 1
M  V30 5 2 5 4
M  V30 6 1 6 2
M  V30 7 1 7 3
M  V30 8 1 8 4
M  V30 END BOND
M  V30 END CTAB
M  END
>  <i_epik_Tot_Q>  (1) 
0

>  <i_epik_Tot_abs_Q>  (1) 
0

>  <i_i_glide_confnum>  (1) 
1

>  <i_i_glide_lignum>  (1) 
52

>  <i_i_glide_posenum>  (1) 
51

>  <i_i_glide_rotatable_bonds>  (1) 
0

>  <i_lp_mmshare_version>  (1) 
72125

>  <i_m_source_file_index>  (1) 
47

>  <i_f3d_flags>  (1) 
0

>  <num_sample>  (1) 
50

>  <b_lp_Chiralities_Consistent>  (1) 
1

>  <r_epik_Charging_Adjusted_Penalty>  (1) 
0

>  <r_epik_Ionization_Penalty>  (1) 
0

>  <r_epik_Ionization_Penalty_Charging>  (1) 
0

>  <r_epik_Ionization_Penalty_Neutral>  (1) 
0

>  <r_epik_State_Penalty>  (1) 
-0

>  <r_glide_ring_energy>  (1) 
0

>  <r_i_docking_score>  (1) 
-3.8717263075654107

>  <r_i_glide_ecoul>  (1) 
-1.0811766605971589

>  <r_i_glide_eff_state_penalty>  (1) 
-0

>  <r_i_glide_einternal>  (1) 
0

>  <r_i_glide_emodel>  (1) 
-17.231150489715489

>  <r_i_glide_emodel_strain>  (1) 
3.9335645851679146e-11

>  <r_i_glide_energy>  (1) 
-13.745489144607872

>  <r_i_glide_erotb>  (1) 
0

>  <r_i_glide_esite>  (1) 
0

>  <r_i_glide_evdw>  (1) 
-12.664312484010713

>  <r_i_glide_gscore>  (1) 
-3.8717263075654107

>  <r_i_glide_gscore_strain>  (1) 
0

>  <r_i_glide_hbond>  (1) 
0

>  <r_i_glide_ligand_efficiency>  (1) 
-0.77434526151308214

>  <r_i_glide_ligand_efficiency_ln>  (1) 
-1.483739578212014

>  <r_i_glide_ligand_efficiency_sa>  (1) 
-1.3241117716104471

>  <r_i_glide_lipo>  (1) 
-0.48466751760863441

>  <r_i_glide_metal>  (1) 
-0

>  <r_i_glide_rewards>  (1) 
-2.5916666666666668

>  <r_lp_Energy>  (1) 
4.860805

>  <r_lp_tautomer_probability>  (1) 
1

>  <s_epik_Chemistry_Notes>  (1) 
This compound has an imine and may undergo hydrolysis.

>  <s_epik_cmdline>  (1) 
J2VwaWtfcHl0aG9uJywgJy1waHQnLCAnMS4wJywgJy1waCcsICc3LjQnLCAnLXRuJywgJzgnLCAnLW1hJywgJzUwMCcsICctaW1hZScsICc8aW5maWxlLm1hZT4nLCAnLW9tYWUnLCAnPG91dGZpbGUubWFlPic=

>  <s_epik_input>  (1) 
TjE9Qz1bQ0hdW0NIXT1bQ0hdMQ==

>  <s_glide_docking_method>  (1) 
confgen

>  <s_i_glide_gridfile>  (1) 
gpcr_drd2_6luq_protein_autoprepared_prepared

>  <s_lp_Force_Field>  (1) 
S-OPLS

>  <s_lp_Variant>  (1) 
Pocket2Mol_46-1

>  <s_m_source_file>  (1) 
generated_generic_title2_ligand_Pocket2Mol_2026-06-23_prepared.sdf

>  <GenAI_Model>  (1) 
Pocket2Mol

>  <Protein>  (1) 
generic_title2

$$$$
Pocket2Mol_45
     RDKit          3D

  0  0  0  0  0  0  0  0  0  0999 V3000
M  V30 BEGIN CTAB
M  V30 COUNTS 13 13 0 0 1
M  V30 BEGIN ATOM
M  V30 1 O 11.775410 9.190222 -6.889454 0
M  V30 2 C 11.792802 8.441419 -8.094496 0
M  V30 3 C 10.346503 7.977579 -8.267585 0
M  V30 4 C 10.928388 8.495766 -5.988320 0
M  V30 5 C 9.769219 8.013844 -6.858991 0
M  V30 6 H 12.145821 9.040773 -8.934369 0
M  V30 7 H 12.464133 7.590228 -7.977354 0
M  V30 8 H 9.795823 8.665818 -8.910561 0
M  V30 9 H 10.289403 6.985635 -8.717062 0
M  V30 10 H 11.465479 7.648669 -5.559354 0
M  V30 11 H 10.599274 9.141277 -5.174480 0
M  V30 12 H 9.393573 7.042725 -6.534302 0
M  V30 13 H 8.937651 8.718986 -6.818229 0
M  V30 END ATOM
M  V30 BEGIN BOND
M  V30 1 1 2 1
M  V30 2 1 3 2
M  V30 3 1 4 1
M  V30 4 1 5 3
M  V30 5 1 5 4
M  V30 6 1 6 2
M  V30 7 1 7 2
M  V30 8 1 8 3
M  V30 9 1 9 3
M  V30 10 1 10 4
M  V30 11 1 11 4
M  V30 12 1 12 5
M  V30 13 1 13 5
M  V30 END BOND
M  V30 END CTAB
M  END
>  <i_epik_Tot_Q>  (1) 
0

>  <i_epik_Tot_abs_Q>  (1) 
0

>  <i_i_glide_confnum>  (1) 
2

>  <i_i_glide_lignum>  (1) 
51

>  <i_i_glide_posenum>  (1) 
350

>  <i_i_glide_rotatable_bonds>  (1) 
0

>  <i_lp_mmshare_version>  (1) 
72125

>  <i_m_source_file_index>  (1) 
46

>  <i_f3d_flags>  (1) 
0

>  <num_sample>  (1) 
50

>  <b_lp_Chiralities_Consistent>  (1) 
1

>  <r_epik_Charging_Adjusted_Penalty>  (1) 
0

>  <r_epik_Ionization_Penalty>  (1) 
1.3889264151150229e-11

>  <r_epik_Ionization_Penalty_Charging>  (1) 
0

>  <r_epik_Ionization_Penalty_Neutral>  (1) 
1.3889264151150229e-11

>  <r_epik_State_Penalty>  (1) 
-0

>  <r_glide_ring_energy>  (1) 
9.8467329014132268e-05

>  <r_i_docking_score>  (1) 
-3.8642836401081953

>  <r_i_glide_ecoul>  (1) 
-0.58181509086580885

>  <r_i_glide_eff_state_penalty>  (1) 
-0

>  <r_i_glide_einternal>  (1) 
0

>  <r_i_glide_emodel>  (1) 
-16.564212834494345

>  <r_i_glide_emodel_strain>  (1) 
0

>  <r_i_glide_energy>  (1) 
-13.22413144720446

>  <r_i_glide_erotb>  (1) 
0

>  <r_i_glide_esite>  (1) 
0

>  <r_i_glide_evdw>  (1) 
-12.642316356338652

>  <r_i_glide_gscore>  (1) 
-3.8642836401081953

>  <r_i_glide_gscore_strain>  (1) 
0

>  <r_i_glide_hbond>  (1) 
0

>  <r_i_glide_ligand_efficiency>  (1) 
-0.77285672802163907

>  <r_i_glide_ligand_efficiency_ln>  (1) 
-1.4808873672351786

>  <r_i_glide_ligand_efficiency_sa>  (1) 
-1.3215664151442568

>  <r_i_glide_lipo>  (1) 
-0.53656222532805775

>  <r_i_glide_metal>  (1) 
-0

>  <r_i_glide_rewards>  (1) 
-2.6083333333333334

>  <r_lp_Energy>  (1) 
3.9173999999999998

>  <r_lp_tautomer_probability>  (1) 
1

>  <s_epik_cmdline>  (1) 
J2VwaWtfcHl0aG9uJywgJy1waHQnLCAnMS4wJywgJy1waCcsICc3LjQnLCAnLXRuJywgJzgnLCAnLW1hJywgJzUwMCcsICctaW1hZScsICc8aW5maWxlLm1hZT4nLCAnLW9tYWUnLCAnPG91dGZpbGUubWFlPic=

>  <s_epik_input>  (1) 
TzFbQ0gyXVtDSDJdW0NIMl1bQ0gyXTE=

>  <s_glide_docking_method>  (1) 
confgen

>  <s_i_glide_gridfile>  (1) 
gpcr_drd2_6luq_protein_autoprepared_prepared

>  <s_lp_Force_Field>  (1) 
S-OPLS

>  <s_lp_Variant>  (1) 
Pocket2Mol_45-1

>  <s_m_source_file>  (1) 
generated_generic_title2_ligand_Pocket2Mol_2026-06-23_prepared.sdf

>  <GenAI_Model>  (1) 
Pocket2Mol

>  <Protein>  (1) 
generic_title2

$$$$
Pocket2Mol_44
     RDKit          3D

  0  0  0  0  0  0  0  0  0  0999 V3000
M  V30 BEGIN CTAB
M  V30 COUNTS 15 16 0 0 1
M  V30 BEGIN ATOM
M  V30 1 C 9.895280 7.434308 -7.423467 0
M  V30 2 O 10.287872 6.474490 -6.386293 0
M  V30 3 C 10.933734 7.303393 -5.561659 0
M  V30 4 C 10.979323 8.569391 -5.978066 0
M  V30 5 C 11.620263 9.558518 -5.214253 0
M  V30 6 N 12.196732 9.201887 -4.038888 0 CHG=1
M  V30 7 C 12.175410 7.923480 -3.577211 0
M  V30 8 C 11.526283 6.919439 -4.341900 0
M  V30 9 O 10.370812 8.790227 -7.143415 0
M  V30 10 H 8.805716 7.453333 -7.499098 0
M  V30 11 H 10.300003 7.116763 -8.386334 0
M  V30 12 H 11.688638 10.599575 -5.492747 0
M  V30 13 H 12.660841 7.749124 -2.627594 0
M  V30 14 H 11.484876 5.901145 -3.998877 0
M  V30 15 H 12.660657 9.919823 -3.479474 0
M  V30 END ATOM
M  V30 BEGIN BOND
M  V30 1 1 2 1
M  V30 2 1 3 2
M  V30 3 2 4 3
M  V30 4 1 5 4
M  V30 5 2 6 5
M  V30 6 1 7 6
M  V30 7 1 8 3
M  V30 8 2 8 7
M  V30 9 1 9 1
M  V30 10 1 9 4
M  V30 11 1 10 1
M  V30 12 1 11 1
M  V30 13 1 12 5
M  V30 14 1 13 7
M  V30 15 1 14 8
M  V30 16 1 15 6
M  V30 END BOND
M  V30 END CTAB
M  END
>  <i_epik_Tot_Q>  (1) 
1

>  <i_epik_Tot_abs_Q>  (1) 
1

>  <i_i_glide_confnum>  (1) 
1

>  <i_i_glide_lignum>  (1) 
50

>  <i_i_glide_posenum>  (1) 
206

>  <i_i_glide_rotatable_bonds>  (1) 
0

>  <i_lp_mmshare_version>  (1) 
72125

>  <i_m_source_file_index>  (1) 
45

>  <i_f3d_flags>  (1) 
0

>  <num_sample>  (1) 
50

>  <b_lp_Chiralities_Consistent>  (1) 
1

>  <r_epik_Charging_Adjusted_Penalty>  (1) 
2.6035637255513002

>  <r_epik_Ionization_Penalty>  (1) 
1.3017818627756499

>  <r_epik_Ionization_Penalty_Charging>  (1) 
1.3017818627756499

>  <r_epik_Ionization_Penalty_Neutral>  (1) 
0

>  <r_epik_State_Penalty>  (1) 
1.3017818627756503

>  <r_glide_ring_energy>  (1) 
0

>  <r_i_docking_score>  (1) 
-3.8247337267550945

>  <r_i_glide_ecoul>  (1) 
-1.1656709059828061

>  <r_i_glide_eff_state_penalty>  (1) 
1.3017818627756503

>  <r_i_glide_einternal>  (1) 
0

>  <r_i_glide_emodel>  (1) 
-27.918950882645092

>  <r_i_glide_emodel_strain>  (1) 
0

>  <r_i_glide_energy>  (1) 
-18.323751352132653

>  <r_i_glide_erotb>  (1) 
0

>  <r_i_glide_esite>  (1) 
-0.051465148685674957

>  <r_i_glide_evdw>  (1) 
-17.158080446149846

>  <r_i_glide_gscore>  (1) 
-5.1265155895307446

>  <r_i_glide_gscore_strain>  (1) 
0

>  <r_i_glide_hbond>  (1) 
0

>  <r_i_glide_ligand_efficiency>  (1) 
-0.42497041408389941

>  <r_i_glide_ligand_efficiency_ln>  (1) 
-1.1962668352630039

>  <r_i_glide_ligand_efficiency_sa>  (1) 
-0.88397408361158836

>  <r_i_glide_lipo>  (1) 
-1.3654553500221858

>  <r_i_glide_metal>  (1) 
-0

>  <r_i_glide_rewards>  (1) 
-2.6768404326179711

>  <r_lp_Energy>  (1) 
25.893000999999998

>  <s_epik_Chemistry_Notes>  (1) 
This compound contains an acetal/aminal-like group ( X-CH(R)-Y where X, Y are N, S, or O) that may be acid/base labile, releasing an aldehyde.

>  <s_epik_cmdline>  (1) 
J2VwaWtfcHl0aG9uJywgJy1waHQnLCAnMS4wJywgJy1waCcsICc3LjQnLCAnLXRuJywgJzgnLCAnLW1hJywgJzUwMCcsICctaW1hZScsICc8aW5maWxlLm1hZT4nLCAnLW9tYWUnLCAnPG91dGZpbGUubWFlPic=

>  <s_epik_input>  (1) 
TzFbQ0gyXU9jKGMxMilbY0hdbltjSF1bY0hdMg==

>  <s_glide_docking_method>  (1) 
confgen

>  <s_i_glide_gridfile>  (1) 
gpcr_drd2_6luq_protein_autoprepared_prepared

>  <s_lp_Force_Field>  (1) 
S-OPLS

>  <s_lp_Variant>  (1) 
Pocket2Mol_44-2

>  <s_m_source_file>  (1) 
generated_generic_title2_ligand_Pocket2Mol_2026-06-23_prepared.sdf

>  <GenAI_Model>  (1) 
Pocket2Mol

>  <Protein>  (1) 
generic_title2

$$$$
Pocket2Mol_46
     RDKit          3D

  0  0  0  0  0  0  0  0  0  0999 V3000
M  V30 BEGIN CTAB
M  V30 COUNTS 8 8 0 0 1
M  V30 BEGIN ATOM
M  V30 1 N 10.588357 8.775026 -5.985025 0
M  V30 2 C 11.768493 9.029185 -6.778916 0
M  V30 3 C 11.684391 8.475271 -7.930766 0
M  V30 4 C 10.511618 7.871906 -7.932309 0
M  V30 5 C 9.896627 8.066111 -6.785086 0
M  V30 6 H 12.586379 9.616199 -6.385746 0
M  V30 7 H 12.419375 8.488431 -8.722557 0
M  V30 8 H 10.184841 7.193045 -8.706737 0
M  V30 END ATOM
M  V30 BEGIN BOND
M  V30 1 1 2 1
M  V30 2 2 3 2
M  V30 3 1 4 3
M  V30 4 2 5 1
M  V30 5 2 5 4
M  V30 6 1 6 2
M  V30 7 1 7 3
M  V30 8 1 8 4
M  V30 END BOND
M  V30 END CTAB
M  END
>  <i_epik_Tot_Q>  (1) 
0

>  <i_epik_Tot_abs_Q>  (1) 
0

>  <i_i_glide_confnum>  (1) 
1

>  <i_i_glide_lignum>  (1) 
52

>  <i_i_glide_posenum>  (1) 
185

>  <i_i_glide_rotatable_bonds>  (1) 
0

>  <i_lp_mmshare_version>  (1) 
72125

>  <i_m_source_file_index>  (1) 
47

>  <i_f3d_flags>  (1) 
0

>  <num_sample>  (1) 
50

>  <b_lp_Chiralities_Consistent>  (1) 
1

>  <r_epik_Charging_Adjusted_Penalty>  (1) 
0

>  <r_epik_Ionization_Penalty>  (1) 
0

>  <r_epik_Ionization_Penalty_Charging>  (1) 
0

>  <r_epik_Ionization_Penalty_Neutral>  (1) 
0

>  <r_epik_State_Penalty>  (1) 
-0

>  <r_glide_ring_energy>  (1) 
0

>  <r_i_docking_score>  (1) 
-3.8052105923870272

>  <r_i_glide_ecoul>  (1) 
-0.73490583203411153

>  <r_i_glide_eff_state_penalty>  (1) 
-0

>  <r_i_glide_einternal>  (1) 
0

>  <r_i_glide_emodel>  (1) 
-16.77548446258303

>  <r_i_glide_emodel_strain>  (1) 
0

>  <r_i_glide_energy>  (1) 
-13.349706290683383

>  <r_i_glide_erotb>  (1) 
0

>  <r_i_glide_esite>  (1) 
0

>  <r_i_glide_evdw>  (1) 
-12.61480045864927

>  <r_i_glide_gscore>  (1) 
-3.8052105923870272

>  <r_i_glide_gscore_strain>  (1) 
0

>  <r_i_glide_hbond>  (1) 
0

>  <r_i_glide_ligand_efficiency>  (1) 
-0.76104211847740544

>  <r_i_glide_ligand_efficiency_ln>  (1) 
-1.458249140266956

>  <r_i_glide_ligand_efficiency_sa>  (1) 
-1.3013637170042405

>  <r_i_glide_lipo>  (1) 
-0.50590136131611341

>  <r_i_glide_metal>  (1) 
-0

>  <r_i_glide_rewards>  (1) 
-2.5583333333333336

>  <r_lp_Energy>  (1) 
4.860805

>  <r_lp_tautomer_probability>  (1) 
1

>  <s_epik_Chemistry_Notes>  (1) 
This compound has an imine and may undergo hydrolysis.

>  <s_epik_cmdline>  (1) 
J2VwaWtfcHl0aG9uJywgJy1waHQnLCAnMS4wJywgJy1waCcsICc3LjQnLCAnLXRuJywgJzgnLCAnLW1hJywgJzUwMCcsICctaW1hZScsICc8aW5maWxlLm1hZT4nLCAnLW9tYWUnLCAnPG91dGZpbGUubWFlPic=

>  <s_epik_input>  (1) 
TjE9Qz1bQ0hdW0NIXT1bQ0hdMQ==

>  <s_glide_docking_method>  (1) 
confgen

>  <s_i_glide_gridfile>  (1) 
gpcr_drd2_6luq_protein_autoprepared_prepared

>  <s_lp_Force_Field>  (1) 
S-OPLS

>  <s_lp_Variant>  (1) 
Pocket2Mol_46-1

>  <s_m_source_file>  (1) 
generated_generic_title2_ligand_Pocket2Mol_2026-06-23_prepared.sdf

>  <GenAI_Model>  (1) 
Pocket2Mol

>  <Protein>  (1) 
generic_title2

$$$$
Pocket2Mol_8
     RDKit          3D

  0  0  0  0  0  0  0  0  0  0999 V3000
M  V30 BEGIN CTAB
M  V30 COUNTS 12 12 0 0 1
M  V30 BEGIN ATOM
M  V30 1 N 12.572986 7.820603 -1.982768 0
M  V30 2 C 12.052662 6.742514 -2.746942 0
M  V30 3 C 11.775588 7.149321 -4.045274 0
M  V30 4 C 12.572376 8.788326 -2.886436 0
M  V30 5 C 11.217775 6.414204 -5.218131 0
M  V30 6 N 12.126850 8.469855 -4.076555 0
M  V30 7 H 11.919306 5.767937 -2.300758 0
M  V30 8 H 12.911217 9.784594 -2.655389 0
M  V30 9 H 11.873103 5.590562 -5.508343 0
M  V30 10 H 10.240414 5.990227 -4.978094 0
M  V30 11 H 11.098660 7.069682 -6.083407 0
M  V30 12 H 12.055099 9.088966 -4.872228 0
M  V30 END ATOM
M  V30 BEGIN BOND
M  V30 1 1 2 1
M  V30 2 2 3 2
M  V30 3 2 4 1
M  V30 4 1 5 3
M  V30 5 1 6 3
M  V30 6 1 6 4
M  V30 7 1 7 2
M  V30 8 1 8 4
M  V30 9 1 9 5
M  V30 10 1 10 5
M  V30 11 1 11 5
M  V30 12 1 12 6
M  V30 END BOND
M  V30 END CTAB
M  END
>  <i_epik_Tot_Q>  (1) 
0

>  <i_epik_Tot_abs_Q>  (1) 
0

>  <i_i_glide_confnum>  (1) 
1

>  <i_i_glide_lignum>  (1) 
9

>  <i_i_glide_posenum>  (1) 
108

>  <i_i_glide_rotatable_bonds>  (1) 
0

>  <i_lp_mmshare_version>  (1) 
72125

>  <i_m_source_file_index>  (1) 
9

>  <i_f3d_flags>  (1) 
0

>  <num_sample>  (1) 
50

>  <b_lp_Chiralities_Consistent>  (1) 
1

>  <r_epik_Charging_Adjusted_Penalty>  (1) 
0.90509379346265462

>  <r_epik_Ionization_Penalty>  (1) 
0.31828505333430857

>  <r_epik_Ionization_Penalty_Charging>  (1) 
0.31828499876078775

>  <r_epik_Ionization_Penalty_Neutral>  (1) 
5.457352079622119e-08

>  <r_epik_State_Penalty>  (1) 
0.58680879470186686

>  <r_glide_ring_energy>  (1) 
0

>  <r_i_docking_score>  (1) 
-3.7983858035566738

>  <r_i_glide_ecoul>  (1) 
-1.2456251791382793

>  <r_i_glide_eff_state_penalty>  (1) 
0.58680879470186686

>  <r_i_glide_einternal>  (1) 
0

>  <r_i_glide_emodel>  (1) 
-20.816392861035222

>  <r_i_glide_emodel_strain>  (1) 
0.045251434844498561

>  <r_i_glide_energy>  (1) 
-15.438507164762596

>  <r_i_glide_erotb>  (1) 
0

>  <r_i_glide_esite>  (1) 
0

>  <r_i_glide_evdw>  (1) 
-14.192881985624316

>  <r_i_glide_gscore>  (1) 
-4.3851945982585407

>  <r_i_glide_gscore_strain>  (1) 
0

>  <r_i_glide_hbond>  (1) 
0

>  <r_i_glide_ligand_efficiency>  (1) 
-0.63306430059277896

>  <r_i_glide_ligand_efficiency_ln>  (1) 
-1.3605705811779549

>  <r_i_glide_ligand_efficiency_sa>  (1) 
-1.1503541771940144

>  <r_i_glide_lipo>  (1) 
-0.7887067221065831

>  <r_i_glide_metal>  (1) 
-0

>  <r_i_glide_rewards>  (1) 
-2.7000000000000002

>  <r_lp_Energy>  (1) 
2.6351399999999998

>  <r_lp_tautomer_probability>  (1) 
0.49999999999999867

>  <s_epik_cmdline>  (1) 
J2VwaWtfcHl0aG9uJywgJy1waHQnLCAnMS4wJywgJy1waCcsICc3LjQnLCAnLXRuJywgJzgnLCAnLW1hJywgJzUwMCcsICctaW1hZScsICc8aW5maWxlLm1hZT4nLCAnLW9tYWUnLCAnPG91dGZpbGUubWFlPic=

>  <s_epik_input>  (1) 
W25IXTFbY0hdbltjSF1jMVtDSDNd

>  <s_glide_docking_method>  (1) 
confgen

>  <s_i_glide_gridfile>  (1) 
gpcr_drd2_6luq_protein_autoprepared_prepared

>  <s_lp_Force_Field>  (1) 
S-OPLS

>  <s_lp_Variant>  (1) 
Pocket2Mol_8-1

>  <s_m_source_file>  (1) 
generated_generic_title2_ligand_Pocket2Mol_2026-06-23_prepared.sdf

>  <GenAI_Model>  (1) 
Pocket2Mol

>  <Protein>  (1) 
generic_title2

$$$$
Pocket2Mol_10
     RDKit          3D

  0  0  0  0  0  0  0  0  0  0999 V3000
M  V30 BEGIN CTAB
M  V30 COUNTS 14 13 0 0 1
M  V30 BEGIN ATOM
M  V30 1 N 6.901625 5.990227 -11.185025 0 CHG=1
M  V30 2 C 7.553806 6.537728 -12.393337 0
M  V30 3 C 5.452789 5.771242 -11.362716 0
M  V30 4 C 7.597835 4.805111 -10.643301 0
M  V30 5 H 7.508901 5.828869 -13.221235 0
M  V30 6 H 8.601309 6.766895 -12.193865 0
M  V30 7 H 7.068086 7.463113 -12.705540 0
M  V30 8 H 5.258484 5.001225 -12.110276 0
M  V30 9 H 4.990269 5.467996 -10.422306 0
M  V30 10 H 4.975410 6.697846 -11.681299 0
M  V30 11 H 7.589995 3.990212 -11.366475 0
M  V30 12 H 8.635573 5.042577 -10.406305 0
M  V30 13 H 7.119329 4.460054 -9.725490 0
M  V30 14 H 6.975410 6.720046 -10.463572 0
M  V30 END ATOM
M  V30 BEGIN BOND
M  V30 1 1 2 1
M  V30 2 1 3 1
M  V30 3 1 4 1
M  V30 4 1 5 2
M  V30 5 1 6 2
M  V30 6 1 7 2
M  V30 7 1 8 3
M  V30 8 1 9 3
M  V30 9 1 10 3
M  V30 10 1 11 4
M  V30 11 1 12 4
M  V30 12 1 13 4
M  V30 13 1 14 1
M  V30 END BOND
M  V30 END CTAB
M  END
>  <i_epik_Tot_Q>  (1) 
1

>  <i_epik_Tot_abs_Q>  (1) 
1

>  <i_i_glide_confnum>  (1) 
1

>  <i_i_glide_lignum>  (1) 
13

>  <i_i_glide_posenum>  (1) 
59

>  <i_i_glide_rotatable_bonds>  (1) 
0

>  <i_lp_mmshare_version>  (1) 
72125

>  <i_m_source_file_index>  (1) 
11

>  <i_f3d_flags>  (1) 
0

>  <num_sample>  (1) 
50

>  <b_lp_Chiralities_Consistent>  (1) 
1

>  <r_epik_Charging_Adjusted_Penalty>  (1) 
0.0093753769364623638

>  <r_epik_Ionization_Penalty>  (1) 
0.0046876884682311671

>  <r_epik_Ionization_Penalty_Charging>  (1) 
0.0046876884682311671

>  <r_epik_Ionization_Penalty_Neutral>  (1) 
0

>  <r_epik_State_Penalty>  (1) 
0.0046876884682311958

>  <r_glide_ring_energy>  (1) 
0

>  <r_i_docking_score>  (1) 
-3.7791295862142014

>  <r_i_glide_ecoul>  (1) 
-6.48074275367577

>  <r_i_glide_eff_state_penalty>  (1) 
0.0046876884682311958

>  <r_i_glide_einternal>  (1) 
0

>  <r_i_glide_emodel>  (1) 
-17.932071423991257

>  <r_i_glide_emodel_strain>  (1) 
0

>  <r_i_glide_energy>  (1) 
-11.774502295881547

>  <r_i_glide_erotb>  (1) 
0

>  <r_i_glide_esite>  (1) 
-0.10000000000000001

>  <r_i_glide_evdw>  (1) 
-5.2937595422057768

>  <r_i_glide_gscore>  (1) 
-3.7838172746824323

>  <r_i_glide_gscore_strain>  (1) 
0

>  <r_i_glide_hbond>  (1) 
-0.19701788452077823

>  <r_i_glide_ligand_efficiency>  (1) 
-0.94478239655355034

>  <r_i_glide_ligand_efficiency_ln>  (1) 
-1.5836812288491733

>  <r_i_glide_ligand_efficiency_sa>  (1) 
-1.4997485701701423

>  <r_i_glide_lipo>  (1) 
0

>  <r_i_glide_metal>  (1) 
-0

>  <r_i_glide_rewards>  (1) 
-2.25

>  <r_lp_Energy>  (1) 
13.212527

>  <s_epik_cmdline>  (1) 
J2VwaWtfcHl0aG9uJywgJy1waHQnLCAnMS4wJywgJy1waCcsICc3LjQnLCAnLXRuJywgJzgnLCAnLW1hJywgJzUwMCcsICctaW1hZScsICc8aW5maWxlLm1hZT4nLCAnLW9tYWUnLCAnPG91dGZpbGUubWFlPic=

>  <s_epik_input>  (1) 
W0NIM11OKFtDSDNdKVtDSDNd

>  <s_glide_docking_method>  (1) 
confgen

>  <s_i_glide_gridfile>  (1) 
gpcr_drd2_6luq_protein_autoprepared_prepared

>  <s_lp_Force_Field>  (1) 
S-OPLS

>  <s_lp_Variant>  (1) 
Pocket2Mol_10-1

>  <s_m_source_file>  (1) 
generated_generic_title2_ligand_Pocket2Mol_2026-06-23_prepared.sdf

>  <GenAI_Model>  (1) 
Pocket2Mol

>  <Protein>  (1) 
generic_title2

$$$$
Pocket2Mol_8
     RDKit          3D

  0  0  0  0  0  0  0  0  0  0999 V3000
M  V30 BEGIN CTAB
M  V30 COUNTS 13 13 0 0 1
M  V30 BEGIN ATOM
M  V30 1 N 9.642052 5.410993 -12.401549 0 CHG=1
M  V30 2 C 8.646580 4.495552 -12.185920 0
M  V30 3 C 7.696916 5.118555 -11.403310 0
M  V30 4 C 9.350417 6.559804 -11.792765 0
M  V30 5 C 6.399508 4.640276 -10.841705 0
M  V30 6 N 8.175410 6.389779 -11.185019 0
M  V30 7 H 8.684679 3.493837 -12.591163 0
M  V30 8 H 9.950160 7.452892 -11.786688 0
M  V30 9 H 5.844147 4.079852 -11.594148 0
M  V30 10 H 6.575467 3.990657 -9.984535 0
M  V30 11 H 5.787214 5.481511 -10.513341 0
M  V30 12 H 7.699121 7.104324 -10.611758 0
M  V30 13 H 10.483711 5.238442 -12.944106 0
M  V30 END ATOM
M  V30 BEGIN BOND
M  V30 1 1 2 1
M  V30 2 2 3 2
M  V30 3 2 4 1
M  V30 4 1 5 3
M  V30 5 1 6 3
M  V30 6 1 6 4
M  V30 7 1 7 2
M  V30 8 1 8 4
M  V30 9 1 9 5
M  V30 10 1 10 5
M  V30 11 1 11 5
M  V30 12 1 12 6
M  V30 13 1 13 1
M  V30 END BOND
M  V30 END CTAB
M  END
>  <i_epik_Tot_Q>  (1) 
1

>  <i_epik_Tot_abs_Q>  (1) 
1

>  <i_i_glide_confnum>  (1) 
1

>  <i_i_glide_lignum>  (1) 
10

>  <i_i_glide_posenum>  (1) 
200

>  <i_i_glide_rotatable_bonds>  (1) 
0

>  <i_lp_mmshare_version>  (1) 
72125

>  <i_m_source_file_index>  (1) 
9

>  <i_f3d_flags>  (1) 
0

>  <num_sample>  (1) 
50

>  <b_lp_Chiralities_Consistent>  (1) 
1

>  <r_epik_Charging_Adjusted_Penalty>  (1) 
0.63910500234431922

>  <r_epik_Ionization_Penalty>  (1) 
0.82018112513013652

>  <r_epik_Ionization_Penalty_Charging>  (1) 
0

>  <r_epik_Ionization_Penalty_Neutral>  (1) 
0.82018112513013652

>  <r_epik_State_Penalty>  (1) 
0.63910500234431922

>  <r_glide_ring_energy>  (1) 
0

>  <r_i_docking_score>  (1) 
-3.7783479701148348

>  <r_i_glide_ecoul>  (1) 
-8.4660596617893962

>  <r_i_glide_eff_state_penalty>  (1) 
0.63910500234431922

>  <r_i_glide_einternal>  (1) 
0

>  <r_i_glide_emodel>  (1) 
-24.47968649372979

>  <r_i_glide_emodel_strain>  (1) 
0.030156026076164966

>  <r_i_glide_energy>  (1) 
-16.27997784363982

>  <r_i_glide_erotb>  (1) 
0

>  <r_i_glide_esite>  (1) 
-0.11448638014905227

>  <r_i_glide_evdw>  (1) 
-7.8139181818504255

>  <r_i_glide_gscore>  (1) 
-4.417452972459154

>  <r_i_glide_gscore_strain>  (1) 
0

>  <r_i_glide_hbond>  (1) 
-0.20000000000000001

>  <r_i_glide_ligand_efficiency>  (1) 
-0.62972466168580576

>  <r_i_glide_ligand_efficiency_ln>  (1) 
-1.3533930883951044

>  <r_i_glide_ligand_efficiency_sa>  (1) 
-1.1442856505635302

>  <r_i_glide_lipo>  (1) 
-0.19236173394917039

>  <r_i_glide_metal>  (1) 
-0

>  <r_i_glide_rewards>  (1) 
-2.25

>  <r_lp_Energy>  (1) 
7.4764169999999996

>  <r_lp_tautomer_probability>  (1) 
1

>  <s_epik_cmdline>  (1) 
J2VwaWtfcHl0aG9uJywgJy1waHQnLCAnMS4wJywgJy1waCcsICc3LjQnLCAnLXRuJywgJzgnLCAnLW1hJywgJzUwMCcsICctaW1hZScsICc8aW5maWxlLm1hZT4nLCAnLW9tYWUnLCAnPG91dGZpbGUubWFlPic=

>  <s_epik_input>  (1) 
W25IXTFbY0hdbltjSF1jMVtDSDNd

>  <s_glide_docking_method>  (1) 
confgen

>  <s_i_glide_gridfile>  (1) 
gpcr_drd2_6luq_protein_autoprepared_prepared

>  <s_lp_Force_Field>  (1) 
S-OPLS

>  <s_lp_Variant>  (1) 
Pocket2Mol_8-2

>  <s_m_source_file>  (1) 
generated_generic_title2_ligand_Pocket2Mol_2026-06-23_prepared.sdf

>  <GenAI_Model>  (1) 
Pocket2Mol

>  <Protein>  (1) 
generic_title2

$$$$
Pocket2Mol_8
     RDKit          3D

  0  0  0  0  0  0  0  0  0  0999 V3000
M  V30 BEGIN CTAB
M  V30 COUNTS 12 12 0 0 1
M  V30 BEGIN ATOM
M  V30 1 N 11.814753 9.005522 -4.663693 0
M  V30 2 C 12.342725 8.630370 -3.394492 0
M  V30 3 C 12.175409 7.267021 -3.173241 0
M  V30 4 C 11.375402 7.832897 -5.105913 0
M  V30 5 C 12.537028 6.398684 -2.017554 0
M  V30 6 N 11.549372 6.806640 -4.301085 0
M  V30 7 H 12.792474 9.369624 -2.747840 0
M  V30 8 H 10.894028 7.729337 -6.067957 0
M  V30 9 H 12.975385 6.992712 -1.217000 0
M  V30 10 H 11.651048 5.909837 -1.612645 0
M  V30 11 H 13.253458 5.629365 -2.306337 0
M  V30 12 H 11.267835 5.851944 -4.481946 0
M  V30 END ATOM
M  V30 BEGIN BOND
M  V30 1 1 2 1
M  V30 2 2 3 2
M  V30 3 2 4 1
M  V30 4 1 5 3
M  V30 5 1 6 3
M  V30 6 1 6 4
M  V30 7 1 7 2
M  V30 8 1 8 4
M  V30 9 1 9 5
M  V30 10 1 10 5
M  V30 11 1 11 5
M  V30 12 1 12 6
M  V30 END BOND
M  V30 END CTAB
M  END
>  <i_epik_Tot_Q>  (1) 
0

>  <i_epik_Tot_abs_Q>  (1) 
0

>  <i_i_glide_confnum>  (1) 
1

>  <i_i_glide_lignum>  (1) 
9

>  <i_i_glide_posenum>  (1) 
244

>  <i_i_glide_rotatable_bonds>  (1) 
0

>  <i_lp_mmshare_version>  (1) 
72125

>  <i_m_source_file_index>  (1) 
9

>  <i_f3d_flags>  (1) 
0

>  <num_sample>  (1) 
50

>  <b_lp_Chiralities_Consistent>  (1) 
1

>  <r_epik_Charging_Adjusted_Penalty>  (1) 
0.90509379346265462

>  <r_epik_Ionization_Penalty>  (1) 
0.31828505333430857

>  <r_epik_Ionization_Penalty_Charging>  (1) 
0.31828499876078775

>  <r_epik_Ionization_Penalty_Neutral>  (1) 
5.457352079622119e-08

>  <r_epik_State_Penalty>  (1) 
0.58680879470186686

>  <r_glide_ring_energy>  (1) 
0

>  <r_i_docking_score>  (1) 
-3.7777604209611613

>  <r_i_glide_ecoul>  (1) 
-2.1972352391164889

>  <r_i_glide_eff_state_penalty>  (1) 
0.58680879470186686

>  <r_i_glide_einternal>  (1) 
0

>  <r_i_glide_emodel>  (1) 
-21.650420804658978

>  <r_i_glide_emodel_strain>  (1) 
0

>  <r_i_glide_energy>  (1) 
-16.252790928850807

>  <r_i_glide_erotb>  (1) 
0

>  <r_i_glide_esite>  (1) 
0

>  <r_i_glide_evdw>  (1) 
-14.055555689734319

>  <r_i_glide_gscore>  (1) 
-4.3645692156630282

>  <r_i_glide_gscore_strain>  (1) 
0

>  <r_i_glide_hbond>  (1) 
0

>  <r_i_glide_ligand_efficiency>  (1) 
-0.62962673682686021

>  <r_i_glide_ligand_efficiency_ln>  (1) 
-1.3531826300228307

>  <r_i_glide_ligand_efficiency_sa>  (1) 
-1.1441077092857899

>  <r_i_glide_lipo>  (1) 
-0.8350023131033969

>  <r_i_glide_metal>  (1) 
-0

>  <r_i_glide_rewards>  (1) 
-2.4972038322054417

>  <r_lp_Energy>  (1) 
2.6351399999999998

>  <r_lp_tautomer_probability>  (1) 
0.49999999999999867

>  <s_epik_cmdline>  (1) 
J2VwaWtfcHl0aG9uJywgJy1waHQnLCAnMS4wJywgJy1waCcsICc3LjQnLCAnLXRuJywgJzgnLCAnLW1hJywgJzUwMCcsICctaW1hZScsICc8aW5maWxlLm1hZT4nLCAnLW9tYWUnLCAnPG91dGZpbGUubWFlPic=

>  <s_epik_input>  (1) 
W25IXTFbY0hdbltjSF1jMVtDSDNd

>  <s_glide_docking_method>  (1) 
confgen

>  <s_i_glide_gridfile>  (1) 
gpcr_drd2_6luq_protein_autoprepared_prepared

>  <s_lp_Force_Field>  (1) 
S-OPLS

>  <s_lp_Variant>  (1) 
Pocket2Mol_8-1

>  <s_m_source_file>  (1) 
generated_generic_title2_ligand_Pocket2Mol_2026-06-23_prepared.sdf

>  <GenAI_Model>  (1) 
Pocket2Mol

>  <Protein>  (1) 
generic_title2

$$$$
Pocket2Mol_46
     RDKit          3D

  0  0  0  0  0  0  0  0  0  0999 V3000
M  V30 BEGIN CTAB
M  V30 COUNTS 8 8 0 0 1
M  V30 BEGIN ATOM
M  V30 1 N 10.926289 8.734474 -6.237482 0
M  V30 2 C 9.776289 8.186616 -6.921504 0
M  V30 3 C 10.026669 7.975698 -8.159475 0
M  V30 4 C 11.278130 8.356026 -8.323346 0
M  V30 5 C 11.774548 8.790282 -7.185024 0
M  V30 6 H 8.847542 8.009521 -6.396094 0
M  V30 7 H 9.351903 7.587537 -8.909831 0
M  V30 8 H 11.749117 8.462451 -9.289230 0
M  V30 END ATOM
M  V30 BEGIN BOND
M  V30 1 1 2 1
M  V30 2 2 3 2
M  V30 3 1 4 3
M  V30 4 2 5 1
M  V30 5 2 5 4
M  V30 6 1 6 2
M  V30 7 1 7 3
M  V30 8 1 8 4
M  V30 END BOND
M  V30 END CTAB
M  END
>  <i_epik_Tot_Q>  (1) 
0

>  <i_epik_Tot_abs_Q>  (1) 
0

>  <i_i_glide_confnum>  (1) 
1

>  <i_i_glide_lignum>  (1) 
52

>  <i_i_glide_posenum>  (1) 
339

>  <i_i_glide_rotatable_bonds>  (1) 
0

>  <i_lp_mmshare_version>  (1) 
72125

>  <i_m_source_file_index>  (1) 
47

>  <i_f3d_flags>  (1) 
0

>  <num_sample>  (1) 
50

>  <b_lp_Chiralities_Consistent>  (1) 
1

>  <r_epik_Charging_Adjusted_Penalty>  (1) 
0

>  <r_epik_Ionization_Penalty>  (1) 
0

>  <r_epik_Ionization_Penalty_Charging>  (1) 
0

>  <r_epik_Ionization_Penalty_Neutral>  (1) 
0

>  <r_epik_State_Penalty>  (1) 
-0

>  <r_glide_ring_energy>  (1) 
0

>  <r_i_docking_score>  (1) 
-3.7763874134583739

>  <r_i_glide_ecoul>  (1) 
-1.0246611410640956

>  <r_i_glide_eff_state_penalty>  (1) 
-0

>  <r_i_glide_einternal>  (1) 
0

>  <r_i_glide_emodel>  (1) 
-16.977288802782638

>  <r_i_glide_emodel_strain>  (1) 
0

>  <r_i_glide_energy>  (1) 
-13.577459737987885

>  <r_i_glide_erotb>  (1) 
0

>  <r_i_glide_esite>  (1) 
0

>  <r_i_glide_evdw>  (1) 
-12.55279859692379

>  <r_i_glide_gscore>  (1) 
-3.7763874134583739

>  <r_i_glide_gscore_strain>  (1) 
0

>  <r_i_glide_hbond>  (1) 
0

>  <r_i_glide_ligand_efficiency>  (1) 
-0.75527748269167483

>  <r_i_glide_ligand_efficiency_ln>  (1) 
-1.4472033978902894

>  <r_i_glide_ligand_efficiency_sa>  (1) 
-1.2915063284692891

>  <r_i_glide_lipo>  (1) 
-0.42004831245256979

>  <r_i_glide_metal>  (1) 
-0

>  <r_i_glide_rewards>  (1) 
-2.5750000000000002

>  <r_lp_Energy>  (1) 
4.860805

>  <r_lp_tautomer_probability>  (1) 
1

>  <s_epik_Chemistry_Notes>  (1) 
This compound has an imine and may undergo hydrolysis.

>  <s_epik_cmdline>  (1) 
J2VwaWtfcHl0aG9uJywgJy1waHQnLCAnMS4wJywgJy1waCcsICc3LjQnLCAnLXRuJywgJzgnLCAnLW1hJywgJzUwMCcsICctaW1hZScsICc8aW5maWxlLm1hZT4nLCAnLW9tYWUnLCAnPG91dGZpbGUubWFlPic=

>  <s_epik_input>  (1) 
TjE9Qz1bQ0hdW0NIXT1bQ0hdMQ==

>  <s_glide_docking_method>  (1) 
confgen

>  <s_i_glide_gridfile>  (1) 
gpcr_drd2_6luq_protein_autoprepared_prepared

>  <s_lp_Force_Field>  (1) 
S-OPLS

>  <s_lp_Variant>  (1) 
Pocket2Mol_46-1

>  <s_m_source_file>  (1) 
generated_generic_title2_ligand_Pocket2Mol_2026-06-23_prepared.sdf

>  <GenAI_Model>  (1) 
Pocket2Mol

>  <Protein>  (1) 
generic_title2

$$$$
Pocket2Mol_49
     RDKit          3D

  0  0  0  0  0  0  0  0  0  0999 V3000
M  V30 BEGIN CTAB
M  V30 COUNTS 11 11 0 0 1
M  V30 BEGIN ATOM
M  V30 1 O 10.872625 6.390223 -6.980747 0
M  V30 2 C 9.775664 7.066247 -7.553290 0
M  V30 3 C 9.775410 8.390126 -6.784864 0
M  V30 4 C 10.835534 6.790244 -5.660331 0
M  V30 5 O 10.575470 8.146821 -5.640033 0
M  V30 6 H 9.887381 7.195749 -8.630015 0
M  V30 7 H 8.857454 6.506477 -7.364759 0
M  V30 8 H 10.236941 9.186421 -7.367218 0
M  V30 9 H 8.765376 8.698976 -6.511949 0
M  V30 10 H 10.031176 6.263578 -5.141503 0
M  V30 11 H 11.775382 6.565472 -5.158851 0
M  V30 END ATOM
M  V30 BEGIN BOND
M  V30 1 1 2 1
M  V30 2 1 3 2
M  V30 3 1 4 1
M  V30 4 1 5 3
M  V30 5 1 5 4
M  V30 6 1 6 2
M  V30 7 1 7 2
M  V30 8 1 8 3
M  V30 9 1 9 3
M  V30 10 1 10 4
M  V30 11 1 11 4
M  V30 END BOND
M  V30 END CTAB
M  END
>  <i_epik_Tot_Q>  (1) 
0

>  <i_epik_Tot_abs_Q>  (1) 
0

>  <i_i_glide_confnum>  (1) 
1

>  <i_i_glide_lignum>  (1) 
55

>  <i_i_glide_posenum>  (1) 
113

>  <i_i_glide_rotatable_bonds>  (1) 
0

>  <i_lp_mmshare_version>  (1) 
72125

>  <i_m_source_file_index>  (1) 
50

>  <i_f3d_flags>  (1) 
0

>  <num_sample>  (1) 
50

>  <b_lp_Chiralities_Consistent>  (1) 
1

>  <r_epik_Charging_Adjusted_Penalty>  (1) 
0

>  <r_epik_Ionization_Penalty>  (1) 
7.9724310449397378e-14

>  <r_epik_Ionization_Penalty_Charging>  (1) 
0

>  <r_epik_Ionization_Penalty_Neutral>  (1) 
7.9724310449397378e-14

>  <r_epik_State_Penalty>  (1) 
-0

>  <r_glide_ring_energy>  (1) 
0

>  <r_i_docking_score>  (1) 
-3.763667719394884

>  <r_i_glide_ecoul>  (1) 
-1.234822294792483

>  <r_i_glide_eff_state_penalty>  (1) 
-0

>  <r_i_glide_einternal>  (1) 
0

>  <r_i_glide_emodel>  (1) 
-16.255475574719391

>  <r_i_glide_emodel_strain>  (1) 
0.049867827090576355

>  <r_i_glide_energy>  (1) 
-13.048709947012071

>  <r_i_glide_erotb>  (1) 
0

>  <r_i_glide_esite>  (1) 
0

>  <r_i_glide_evdw>  (1) 
-11.813887652219588

>  <r_i_glide_gscore>  (1) 
-3.763667719394884

>  <r_i_glide_gscore_strain>  (1) 
0

>  <r_i_glide_hbond>  (1) 
0

>  <r_i_glide_ligand_efficiency>  (1) 
-0.75273354387897684

>  <r_i_glide_ligand_efficiency_ln>  (1) 
-1.4423289021213426

>  <r_i_glide_ligand_efficiency_sa>  (1) 
-1.2871562542897583

>  <r_i_glide_lipo>  (1) 
-0.023514837016276508

>  <r_i_glide_metal>  (1) 
-0

>  <r_i_glide_rewards>  (1) 
-2.9642351555487556

>  <r_lp_Energy>  (1) 
-12.242958999999999

>  <r_lp_tautomer_probability>  (1) 
1

>  <s_epik_Chemistry_Notes>  (1) 
This compound contains an acetal/aminal-like group ( X-CH(R)-Y where X, Y are N, S, or O) that may be acid/base labile, releasing an aldehyde.

>  <s_epik_cmdline>  (1) 
J2VwaWtfcHl0aG9uJywgJy1waHQnLCAnMS4wJywgJy1waCcsICc3LjQnLCAnLXRuJywgJzgnLCAnLW1hJywgJzUwMCcsICctaW1hZScsICc8aW5maWxlLm1hZT4nLCAnLW9tYWUnLCAnPG91dGZpbGUubWFlPic=

>  <s_epik_input>  (1) 
TzFbQ0gyXVtDSDJdT1tDSDJdMQ==

>  <s_glide_docking_method>  (1) 
confgen

>  <s_i_glide_gridfile>  (1) 
gpcr_drd2_6luq_protein_autoprepared_prepared

>  <s_lp_Force_Field>  (1) 
S-OPLS

>  <s_lp_Variant>  (1) 
Pocket2Mol_49-1

>  <s_m_source_file>  (1) 
generated_generic_title2_ligand_Pocket2Mol_2026-06-23_prepared.sdf

>  <GenAI_Model>  (1) 
Pocket2Mol

>  <Protein>  (1) 
generic_title2

$$$$
Pocket2Mol_21
     RDKit          3D

  0  0  0  0  0  0  0  0  0  0999 V3000
M  V30 BEGIN CTAB
M  V30 COUNTS 9 9 0 0 1
M  V30 BEGIN ATOM
M  V30 1 C 11.775502 9.185463 -6.614529 0
M  V30 2 O 10.575107 9.015269 -5.985057 0
M  V30 3 C 9.804383 8.281389 -6.845371 0
M  V30 4 C 11.775410 8.576785 -7.837361 0
M  V30 5 C 10.493045 7.989862 -7.987399 0
M  V30 6 H 12.508185 9.754348 -6.061090 0
M  V30 7 H 8.805532 8.057787 -6.495258 0
M  V30 8 H 12.597956 8.558893 -8.537581 0
M  V30 9 H 10.116498 7.423967 -8.827668 0
M  V30 END ATOM
M  V30 BEGIN BOND
M  V30 1 1 2 1
M  V30 2 1 3 2
M  V30 3 2 4 1
M  V30 4 2 5 3
M  V30 5 1 5 4
M  V30 6 1 6 1
M  V30 7 1 7 3
M  V30 8 1 8 4
M  V30 9 1 9 5
M  V30 END BOND
M  V30 END CTAB
M  END
>  <i_epik_Tot_Q>  (1) 
0

>  <i_epik_Tot_abs_Q>  (1) 
0

>  <i_i_glide_confnum>  (1) 
1

>  <i_i_glide_lignum>  (1) 
25

>  <i_i_glide_posenum>  (1) 
238

>  <i_i_glide_rotatable_bonds>  (1) 
0

>  <i_lp_mmshare_version>  (1) 
72125

>  <i_m_source_file_index>  (1) 
22

>  <i_f3d_flags>  (1) 
0

>  <num_sample>  (1) 
50

>  <b_lp_Chiralities_Consistent>  (1) 
1

>  <r_epik_Charging_Adjusted_Penalty>  (1) 
0

>  <r_epik_Ionization_Penalty>  (1) 
0

>  <r_epik_Ionization_Penalty_Charging>  (1) 
0

>  <r_epik_Ionization_Penalty_Neutral>  (1) 
0

>  <r_epik_State_Penalty>  (1) 
-0

>  <r_glide_ring_energy>  (1) 
0

>  <r_i_docking_score>  (1) 
-3.7582475682009591

>  <r_i_glide_ecoul>  (1) 
-0.65921377551050842

>  <r_i_glide_eff_state_penalty>  (1) 
-0

>  <r_i_glide_einternal>  (1) 
0

>  <r_i_glide_emodel>  (1) 
-14.924367878245178

>  <r_i_glide_emodel_strain>  (1) 
0

>  <r_i_glide_energy>  (1) 
-12.020871669327246

>  <r_i_glide_erotb>  (1) 
0

>  <r_i_glide_esite>  (1) 
0

>  <r_i_glide_evdw>  (1) 
-11.361657893816737

>  <r_i_glide_gscore>  (1) 
-3.7582475682009591

>  <r_i_glide_gscore_strain>  (1) 
0

>  <r_i_glide_hbond>  (1) 
0

>  <r_i_glide_ligand_efficiency>  (1) 
-0.75164951364019184

>  <r_i_glide_ligand_efficiency_ln>  (1) 
-1.4402517685102696

>  <r_i_glide_ligand_efficiency_sa>  (1) 
-1.2853025886559659

>  <r_i_glide_lipo>  (1) 
-0.54128260718354604

>  <r_i_glide_metal>  (1) 
-0

>  <r_i_glide_rewards>  (1) 
-2.5499999999999998

>  <r_lp_Energy>  (1) 
2.5980879999999997

>  <r_lp_tautomer_probability>  (1) 
1

>  <s_epik_cmdline>  (1) 
J2VwaWtfcHl0aG9uJywgJy1waHQnLCAnMS4wJywgJy1waCcsICc3LjQnLCAnLXRuJywgJzgnLCAnLW1hJywgJzUwMCcsICctaW1hZScsICc8aW5maWxlLm1hZT4nLCAnLW9tYWUnLCAnPG91dGZpbGUubWFlPic=

>  <s_epik_input>  (1) 
W2NIXTFvW2NIXVtjSF1bY0hdMQ==

>  <s_glide_docking_method>  (1) 
confgen

>  <s_i_glide_gridfile>  (1) 
gpcr_drd2_6luq_protein_autoprepared_prepared

>  <s_lp_Force_Field>  (1) 
S-OPLS

>  <s_lp_Variant>  (1) 
Pocket2Mol_21-1

>  <s_m_source_file>  (1) 
generated_generic_title2_ligand_Pocket2Mol_2026-06-23_prepared.sdf

>  <GenAI_Model>  (1) 
Pocket2Mol

>  <Protein>  (1) 
generic_title2

$$$$
Pocket2Mol_44
     RDKit          3D

  0  0  0  0  0  0  0  0  0  0999 V3000
M  V30 BEGIN CTAB
M  V30 COUNTS 15 16 0 0 1
M  V30 BEGIN ATOM
M  V30 1 C 11.786000 9.190228 -5.483043 0
M  V30 2 O 12.522948 9.260042 -6.746928 0
M  V30 3 C 11.675580 8.588613 -7.527296 0
M  V30 4 C 10.609037 8.106059 -6.890257 0
M  V30 5 C 9.623649 7.382893 -7.579670 0
M  V30 6 N 9.775408 7.187796 -8.912363 0 CHG=1
M  V30 7 C 10.847446 7.663411 -9.601110 0
M  V30 8 C 11.848979 8.390231 -8.910808 0
M  V30 9 O 10.575408 8.379571 -5.585026 0
M  V30 10 H 11.498951 10.202534 -5.192761 0
M  V30 11 H 12.433448 8.787342 -4.703516 0
M  V30 12 H 8.732726 6.968564 -7.127576 0
M  V30 13 H 10.865731 7.454529 -10.661595 0
M  V30 14 H 12.712066 8.785201 -9.428114 0
M  V30 15 H 9.049233 6.673852 -9.418553 0
M  V30 END ATOM
M  V30 BEGIN BOND
M  V30 1 1 2 1
M  V30 2 1 3 2
M  V30 3 2 4 3
M  V30 4 1 5 4
M  V30 5 2 6 5
M  V30 6 1 7 6
M  V30 7 1 8 3
M  V30 8 2 8 7
M  V30 9 1 9 1
M  V30 10 1 9 4
M  V30 11 1 10 1
M  V30 12 1 11 1
M  V30 13 1 12 5
M  V30 14 1 13 7
M  V30 15 1 14 8
M  V30 16 1 15 6
M  V30 END BOND
M  V30 END CTAB
M  END
>  <i_epik_Tot_Q>  (1) 
1

>  <i_epik_Tot_abs_Q>  (1) 
1

>  <i_i_glide_confnum>  (1) 
1

>  <i_i_glide_lignum>  (1) 
50

>  <i_i_glide_posenum>  (1) 
270

>  <i_i_glide_rotatable_bonds>  (1) 
0

>  <i_lp_mmshare_version>  (1) 
72125

>  <i_m_source_file_index>  (1) 
45

>  <i_f3d_flags>  (1) 
0

>  <num_sample>  (1) 
50

>  <b_lp_Chiralities_Consistent>  (1) 
1

>  <r_epik_Charging_Adjusted_Penalty>  (1) 
2.6035637255513002

>  <r_epik_Ionization_Penalty>  (1) 
1.3017818627756499

>  <r_epik_Ionization_Penalty_Charging>  (1) 
1.3017818627756499

>  <r_epik_Ionization_Penalty_Neutral>  (1) 
0

>  <r_epik_State_Penalty>  (1) 
1.3017818627756503

>  <r_glide_ring_energy>  (1) 
0

>  <r_i_docking_score>  (1) 
-3.754952592270751

>  <r_i_glide_ecoul>  (1) 
-2.0506664462991995

>  <r_i_glide_eff_state_penalty>  (1) 
1.3017818627756503

>  <r_i_glide_einternal>  (1) 
0

>  <r_i_glide_emodel>  (1) 
-27.974924521921938

>  <r_i_glide_emodel_strain>  (1) 
0

>  <r_i_glide_energy>  (1) 
-18.510332983748423

>  <r_i_glide_erotb>  (1) 
0

>  <r_i_glide_esite>  (1) 
-0.10000000000000001

>  <r_i_glide_evdw>  (1) 
-16.459666537449223

>  <r_i_glide_gscore>  (1) 
-5.0567344550464011

>  <r_i_glide_gscore_strain>  (1) 
0

>  <r_i_glide_hbond>  (1) 
-0.0016810986371213841

>  <r_i_glide_ligand_efficiency>  (1) 
-0.41721695469675013

>  <r_i_glide_ligand_efficiency_ln>  (1) 
-1.1744413010234034

>  <r_i_glide_ligand_efficiency_sa>  (1) 
-0.86784623816768913

>  <r_i_glide_lipo>  (1) 
-0.78932395012481249

>  <r_i_glide_metal>  (1) 
-0

>  <r_i_glide_rewards>  (1) 
-3.0351461124671264

>  <r_lp_Energy>  (1) 
25.893000999999998

>  <s_epik_Chemistry_Notes>  (1) 
This compound contains an acetal/aminal-like group ( X-CH(R)-Y where X, Y are N, S, or O) that may be acid/base labile, releasing an aldehyde.

>  <s_epik_cmdline>  (1) 
J2VwaWtfcHl0aG9uJywgJy1waHQnLCAnMS4wJywgJy1waCcsICc3LjQnLCAnLXRuJywgJzgnLCAnLW1hJywgJzUwMCcsICctaW1hZScsICc8aW5maWxlLm1hZT4nLCAnLW9tYWUnLCAnPG91dGZpbGUubWFlPic=

>  <s_epik_input>  (1) 
TzFbQ0gyXU9jKGMxMilbY0hdbltjSF1bY0hdMg==

>  <s_glide_docking_method>  (1) 
confgen

>  <s_i_glide_gridfile>  (1) 
gpcr_drd2_6luq_protein_autoprepared_prepared

>  <s_lp_Force_Field>  (1) 
S-OPLS

>  <s_lp_Variant>  (1) 
Pocket2Mol_44-2

>  <s_m_source_file>  (1) 
generated_generic_title2_ligand_Pocket2Mol_2026-06-23_prepared.sdf

>  <GenAI_Model>  (1) 
Pocket2Mol

>  <Protein>  (1) 
generic_title2

$$$$
Pocket2Mol_10
     RDKit          3D

  0  0  0  0  0  0  0  0  0  0999 V3000
M  V30 BEGIN CTAB
M  V30 COUNTS 14 13 0 0 1
M  V30 BEGIN ATOM
M  V30 1 N 8.175410 5.788209 -10.385025 0 CHG=1
M  V30 2 C 8.977476 5.236304 -9.272778 0
M  V30 3 C 9.010228 6.338303 -11.473754 0
M  V30 4 C 7.149245 4.844280 -10.872864 0
M  V30 5 H 9.579870 4.390227 -9.603963 0
M  V30 6 H 8.331117 4.904507 -8.458752 0
M  V30 7 H 9.647889 5.996559 -8.870475 0
M  V30 8 H 9.600003 5.555113 -11.952708 0
M  V30 9 H 8.387251 6.812922 -12.232873 0
M  V30 10 H 9.693566 7.095384 -11.087339 0
M  V30 11 H 7.611177 3.990228 -11.367507 0
M  V30 12 H 6.537048 4.477414 -10.048156 0
M  V30 13 H 6.486101 5.335444 -11.585899 0
M  V30 14 H 7.661137 6.586403 -9.985400 0
M  V30 END ATOM
M  V30 BEGIN BOND
M  V30 1 1 2 1
M  V30 2 1 3 1
M  V30 3 1 4 1
M  V30 4 1 5 2
M  V30 5 1 6 2
M  V30 6 1 7 2
M  V30 7 1 8 3
M  V30 8 1 9 3
M  V30 9 1 10 3
M  V30 10 1 11 4
M  V30 11 1 12 4
M  V30 12 1 13 4
M  V30 13 1 14 1
M  V30 END BOND
M  V30 END CTAB
M  END
>  <i_epik_Tot_Q>  (1) 
1

>  <i_epik_Tot_abs_Q>  (1) 
1

>  <i_i_glide_confnum>  (1) 
1

>  <i_i_glide_lignum>  (1) 
13

>  <i_i_glide_posenum>  (1) 
72

>  <i_i_glide_rotatable_bonds>  (1) 
0

>  <i_lp_mmshare_version>  (1) 
72125

>  <i_m_source_file_index>  (1) 
11

>  <i_f3d_flags>  (1) 
0

>  <num_sample>  (1) 
50

>  <b_lp_Chiralities_Consistent>  (1) 
1

>  <r_epik_Charging_Adjusted_Penalty>  (1) 
0.0093753769364623638

>  <r_epik_Ionization_Penalty>  (1) 
0.0046876884682311671

>  <r_epik_Ionization_Penalty_Charging>  (1) 
0.0046876884682311671

>  <r_epik_Ionization_Penalty_Neutral>  (1) 
0

>  <r_epik_State_Penalty>  (1) 
0.0046876884682311958

>  <r_glide_ring_energy>  (1) 
0

>  <r_i_docking_score>  (1) 
-3.7413818564521129

>  <r_i_glide_ecoul>  (1) 
-6.2435438827505312

>  <r_i_glide_eff_state_penalty>  (1) 
0.0046876884682311958

>  <r_i_glide_einternal>  (1) 
0

>  <r_i_glide_emodel>  (1) 
-17.530443751506226

>  <r_i_glide_emodel_strain>  (1) 
0

>  <r_i_glide_energy>  (1) 
-11.434303132905811

>  <r_i_glide_erotb>  (1) 
0

>  <r_i_glide_esite>  (1) 
-0.10000000000000001

>  <r_i_glide_evdw>  (1) 
-5.1907592501552804

>  <r_i_glide_gscore>  (1) 
-3.7460695449203438

>  <r_i_glide_gscore_strain>  (1) 
0

>  <r_i_glide_hbond>  (1) 
-0.20000000000000001

>  <r_i_glide_ligand_efficiency>  (1) 
-0.93534546411302821

>  <r_i_glide_ligand_efficiency_ln>  (1) 
-1.5678626733611682

>  <r_i_glide_ligand_efficiency_sa>  (1) 
-1.4847683736867048

>  <r_i_glide_lipo>  (1) 
0

>  <r_i_glide_metal>  (1) 
-0

>  <r_i_glide_rewards>  (1) 
-2.25

>  <r_lp_Energy>  (1) 
13.212527

>  <s_epik_cmdline>  (1) 
J2VwaWtfcHl0aG9uJywgJy1waHQnLCAnMS4wJywgJy1waCcsICc3LjQnLCAnLXRuJywgJzgnLCAnLW1hJywgJzUwMCcsICctaW1hZScsICc8aW5maWxlLm1hZT4nLCAnLW9tYWUnLCAnPG91dGZpbGUubWFlPic=

>  <s_epik_input>  (1) 
W0NIM11OKFtDSDNdKVtDSDNd

>  <s_glide_docking_method>  (1) 
confgen

>  <s_i_glide_gridfile>  (1) 
gpcr_drd2_6luq_protein_autoprepared_prepared

>  <s_lp_Force_Field>  (1) 
S-OPLS

>  <s_lp_Variant>  (1) 
Pocket2Mol_10-1

>  <s_m_source_file>  (1) 
generated_generic_title2_ligand_Pocket2Mol_2026-06-23_prepared.sdf

>  <GenAI_Model>  (1) 
Pocket2Mol

>  <Protein>  (1) 
generic_title2

$$$$
Pocket2Mol_8
     RDKit          3D

  0  0  0  0  0  0  0  0  0  0999 V3000
M  V30 BEGIN CTAB
M  V30 COUNTS 12 12 0 0 1
M  V30 BEGIN ATOM
M  V30 1 N 12.470209 7.965386 -2.051561 0
M  V30 2 C 12.169888 6.816267 -2.727383 0
M  V30 3 C 11.776561 7.245862 -3.989694 0
M  V30 4 C 12.266467 8.972538 -2.866780 0
M  V30 5 C 11.333755 6.417004 -5.151405 0
M  V30 6 N 11.844033 8.665915 -4.085663 0
M  V30 7 H 12.249032 5.832484 -2.287333 0
M  V30 8 H 12.434918 9.990528 -2.561830 0
M  V30 9 H 12.023637 5.590245 -5.327674 0
M  V30 10 H 10.344000 5.990228 -4.977597 0
M  V30 11 H 11.290758 7.012211 -6.066329 0
M  V30 12 H 12.790726 8.030685 -1.096758 0
M  V30 END ATOM
M  V30 BEGIN BOND
M  V30 1 1 2 1
M  V30 2 2 3 2
M  V30 3 1 4 1
M  V30 4 1 5 3
M  V30 5 1 6 3
M  V30 6 2 6 4
M  V30 7 1 7 2
M  V30 8 1 8 4
M  V30 9 1 9 5
M  V30 10 1 10 5
M  V30 11 1 11 5
M  V30 12 1 12 1
M  V30 END BOND
M  V30 END CTAB
M  END
>  <i_epik_Tot_Q>  (1) 
0

>  <i_epik_Tot_abs_Q>  (1) 
0

>  <i_i_glide_confnum>  (1) 
1

>  <i_i_glide_lignum>  (1) 
11

>  <i_i_glide_posenum>  (1) 
388

>  <i_i_glide_rotatable_bonds>  (1) 
0

>  <i_lp_mmshare_version>  (1) 
72125

>  <i_m_source_file_index>  (1) 
9

>  <i_f3d_flags>  (1) 
0

>  <num_sample>  (1) 
50

>  <b_lp_Chiralities_Consistent>  (1) 
1

>  <r_epik_Charging_Adjusted_Penalty>  (1) 
1.2833377634270211

>  <r_epik_Ionization_Penalty>  (1) 
0.5469164599317381

>  <r_epik_Ionization_Penalty_Charging>  (1) 
0.546916339904576

>  <r_epik_Ionization_Penalty_Neutral>  (1) 
1.2002716213740492e-07

>  <r_epik_State_Penalty>  (1) 
0.73642142352244522

>  <r_glide_ring_energy>  (1) 
0

>  <r_i_docking_score>  (1) 
-3.7311677823986256

>  <r_i_glide_ecoul>  (1) 
-1.7460719161840108

>  <r_i_glide_eff_state_penalty>  (1) 
0.73642142352244522

>  <r_i_glide_einternal>  (1) 
0

>  <r_i_glide_emodel>  (1) 
-22.186327606612455

>  <r_i_glide_emodel_strain>  (1) 
0.027109402305129038

>  <r_i_glide_energy>  (1) 
-16.742112048988872

>  <r_i_glide_erotb>  (1) 
0

>  <r_i_glide_esite>  (1) 
0

>  <r_i_glide_evdw>  (1) 
-14.996040132804863

>  <r_i_glide_gscore>  (1) 
-4.4675892059210707

>  <r_i_glide_gscore_strain>  (1) 
0

>  <r_i_glide_hbond>  (1) 
0

>  <r_i_glide_ligand_efficiency>  (1) 
-0.62186129706643756

>  <r_i_glide_ligand_efficiency_ln>  (1) 
-1.336493284441272

>  <r_i_glide_ligand_efficiency_sa>  (1) 
-1.1299969687847284

>  <r_i_glide_lipo>  (1) 
-0.75587641185322585

>  <r_i_glide_metal>  (1) 
-0

>  <r_i_glide_rewards>  (1) 
-2.7000000000000002

>  <r_lp_Energy>  (1) 
3.7227389999999998

>  <r_lp_tautomer_probability>  (1) 
0.49999999999999867

>  <s_epik_cmdline>  (1) 
J2VwaWtfcHl0aG9uJywgJy1waHQnLCAnMS4wJywgJy1waCcsICc3LjQnLCAnLXRuJywgJzgnLCAnLW1hJywgJzUwMCcsICctaW1hZScsICc8aW5maWxlLm1hZT4nLCAnLW9tYWUnLCAnPG91dGZpbGUubWFlPic=

>  <s_epik_input>  (1) 
W25IXTFbY0hdbltjSF1jMVtDSDNd

>  <s_glide_docking_method>  (1) 
confgen

>  <s_i_glide_gridfile>  (1) 
gpcr_drd2_6luq_protein_autoprepared_prepared

>  <s_lp_Force_Field>  (1) 
S-OPLS

>  <s_lp_Variant>  (1) 
Pocket2Mol_8-3

>  <s_m_source_file>  (1) 
generated_generic_title2_ligand_Pocket2Mol_2026-06-23_prepared.sdf

>  <GenAI_Model>  (1) 
Pocket2Mol

>  <Protein>  (1) 
generic_title2

$$$$
Pocket2Mol_10
     RDKit          3D

  0  0  0  0  0  0  0  0  0  0999 V3000
M  V30 BEGIN CTAB
M  V30 COUNTS 14 13 0 0 1
M  V30 BEGIN ATOM
M  V30 1 N 8.975410 6.387736 -9.715489 0 CHG=1
M  V30 2 C 9.160819 6.240918 -11.175323 0
M  V30 3 C 8.767687 5.087165 -9.038202 0
M  V30 4 C 10.056422 7.179433 -9.088183 0
M  V30 5 H 10.066308 5.678160 -11.401401 0
M  V30 6 H 9.237189 7.218418 -11.653899 0
M  V30 7 H 8.313030 5.719844 -11.619891 0
M  V30 8 H 9.649830 4.453242 -9.131828 0
M  V30 9 H 8.560559 5.234241 -7.977750 0
M  V30 10 H 7.917565 4.561299 -9.472865 0
M  V30 11 H 11.019167 6.676623 -9.182922 0
M  V30 12 H 10.138654 8.162017 -9.556260 0
M  V30 13 H 9.857615 7.336528 -8.026854 0
M  V30 14 H 8.108962 6.927314 -9.585164 0
M  V30 END ATOM
M  V30 BEGIN BOND
M  V30 1 1 2 1
M  V30 2 1 3 1
M  V30 3 1 4 1
M  V30 4 1 5 2
M  V30 5 1 6 2
M  V30 6 1 7 2
M  V30 7 1 8 3
M  V30 8 1 9 3
M  V30 9 1 10 3
M  V30 10 1 11 4
M  V30 11 1 12 4
M  V30 12 1 13 4
M  V30 13 1 14 1
M  V30 END BOND
M  V30 END CTAB
M  END
>  <i_epik_Tot_Q>  (1) 
1

>  <i_epik_Tot_abs_Q>  (1) 
1

>  <i_i_glide_confnum>  (1) 
1

>  <i_i_glide_lignum>  (1) 
13

>  <i_i_glide_posenum>  (1) 
336

>  <i_i_glide_rotatable_bonds>  (1) 
0

>  <i_lp_mmshare_version>  (1) 
72125

>  <i_m_source_file_index>  (1) 
11

>  <i_f3d_flags>  (1) 
0

>  <num_sample>  (1) 
50

>  <b_lp_Chiralities_Consistent>  (1) 
1

>  <r_epik_Charging_Adjusted_Penalty>  (1) 
0.0093753769364623638

>  <r_epik_Ionization_Penalty>  (1) 
0.0046876884682311671

>  <r_epik_Ionization_Penalty_Charging>  (1) 
0.0046876884682311671

>  <r_epik_Ionization_Penalty_Neutral>  (1) 
0

>  <r_epik_State_Penalty>  (1) 
0.0046876884682311958

>  <r_glide_ring_energy>  (1) 
0

>  <r_i_docking_score>  (1) 
-3.726359014446134

>  <r_i_glide_ecoul>  (1) 
-6.244360567675276

>  <r_i_glide_eff_state_penalty>  (1) 
0.0046876884682311958

>  <r_i_glide_einternal>  (1) 
0

>  <r_i_glide_emodel>  (1) 
-17.481719842661121

>  <r_i_glide_emodel_strain>  (1) 
0

>  <r_i_glide_energy>  (1) 
-11.410026543113723

>  <r_i_glide_erotb>  (1) 
0

>  <r_i_glide_esite>  (1) 
-0.10000000000000001

>  <r_i_glide_evdw>  (1) 
-5.1656659754384471

>  <r_i_glide_gscore>  (1) 
-3.731046702914365

>  <r_i_glide_gscore_strain>  (1) 
0

>  <r_i_glide_hbond>  (1) 
-0.18610931899115152

>  <r_i_glide_ligand_efficiency>  (1) 
-0.93158975361153351

>  <r_i_glide_ligand_efficiency_ln>  (1) 
-1.561567204432126

>  <r_i_glide_ligand_efficiency_sa>  (1) 
-1.4788065548857441

>  <r_i_glide_lipo>  (1) 
0

>  <r_i_glide_metal>  (1) 
-0

>  <r_i_glide_rewards>  (1) 
-2.25

>  <r_lp_Energy>  (1) 
13.212527

>  <s_epik_cmdline>  (1) 
J2VwaWtfcHl0aG9uJywgJy1waHQnLCAnMS4wJywgJy1waCcsICc3LjQnLCAnLXRuJywgJzgnLCAnLW1hJywgJzUwMCcsICctaW1hZScsICc8aW5maWxlLm1hZT4nLCAnLW9tYWUnLCAnPG91dGZpbGUubWFlPic=

>  <s_epik_input>  (1) 
W0NIM11OKFtDSDNdKVtDSDNd

>  <s_glide_docking_method>  (1) 
confgen

>  <s_i_glide_gridfile>  (1) 
gpcr_drd2_6luq_protein_autoprepared_prepared

>  <s_lp_Force_Field>  (1) 
S-OPLS

>  <s_lp_Variant>  (1) 
Pocket2Mol_10-1

>  <s_m_source_file>  (1) 
generated_generic_title2_ligand_Pocket2Mol_2026-06-23_prepared.sdf

>  <GenAI_Model>  (1) 
Pocket2Mol

>  <Protein>  (1) 
generic_title2

$$$$
Pocket2Mol_8
     RDKit          3D

  0  0  0  0  0  0  0  0  0  0999 V3000
M  V30 BEGIN CTAB
M  V30 COUNTS 12 12 0 0 1
M  V30 BEGIN ATOM
M  V30 1 N 9.229802 7.352807 -7.279686 0
M  V30 2 C 9.894995 7.989249 -8.289451 0
M  V30 3 C 11.227706 7.961465 -7.902563 0
M  V30 4 C 10.116210 6.987659 -6.385042 0
M  V30 5 C 12.413881 8.510973 -8.630083 0
M  V30 6 N 11.375408 7.305514 -6.648017 0
M  V30 7 H 9.396988 8.390372 -9.161971 0
M  V30 8 H 9.835709 6.459133 -5.485326 0
M  V30 9 H 12.148315 9.398604 -9.204710 0
M  V30 10 H 13.211185 8.789926 -7.940892 0
M  V30 11 H 12.819289 7.777904 -9.326847 0
M  V30 12 H 8.227339 7.190227 -7.234877 0
M  V30 END ATOM
M  V30 BEGIN BOND
M  V30 1 1 2 1
M  V30 2 2 3 2
M  V30 3 1 4 1
M  V30 4 1 5 3
M  V30 5 1 6 3
M  V30 6 2 6 4
M  V30 7 1 7 2
M  V30 8 1 8 4
M  V30 9 1 9 5
M  V30 10 1 10 5
M  V30 11 1 11 5
M  V30 12 1 12 1
M  V30 END BOND
M  V30 END CTAB
M  END
>  <i_epik_Tot_Q>  (1) 
0

>  <i_epik_Tot_abs_Q>  (1) 
0

>  <i_i_glide_confnum>  (1) 
1

>  <i_i_glide_lignum>  (1) 
11

>  <i_i_glide_posenum>  (1) 
190

>  <i_i_glide_rotatable_bonds>  (1) 
0

>  <i_lp_mmshare_version>  (1) 
72125

>  <i_m_source_file_index>  (1) 
9

>  <i_f3d_flags>  (1) 
0

>  <num_sample>  (1) 
50

>  <b_lp_Chiralities_Consistent>  (1) 
1

>  <r_epik_Charging_Adjusted_Penalty>  (1) 
1.2833377634270211

>  <r_epik_Ionization_Penalty>  (1) 
0.5469164599317381

>  <r_epik_Ionization_Penalty_Charging>  (1) 
0.546916339904576

>  <r_epik_Ionization_Penalty_Neutral>  (1) 
1.2002716213740492e-07

>  <r_epik_State_Penalty>  (1) 
0.73642142352244522

>  <r_glide_ring_energy>  (1) 
0

>  <r_i_docking_score>  (1) 
-3.6656955779600104

>  <r_i_glide_ecoul>  (1) 
-2.9725206730027649

>  <r_i_glide_eff_state_penalty>  (1) 
0.73642142352244522

>  <r_i_glide_einternal>  (1) 
0

>  <r_i_glide_emodel>  (1) 
-20.668299761387793

>  <r_i_glide_emodel_strain>  (1) 
0.0078546441825384505

>  <r_i_glide_energy>  (1) 
-15.28501132669993

>  <r_i_glide_erotb>  (1) 
0

>  <r_i_glide_esite>  (1) 
-0.095568533580781267

>  <r_i_glide_evdw>  (1) 
-12.312490653697164

>  <r_i_glide_gscore>  (1) 
-4.4021170014824555

>  <r_i_glide_gscore_strain>  (1) 
0

>  <r_i_glide_hbond>  (1) 
-0.16

>  <r_i_glide_ligand_efficiency>  (1) 
-0.61094926299333507

>  <r_i_glide_ligand_efficiency_ln>  (1) 
-1.3130413340994618

>  <r_i_glide_ligand_efficiency_sa>  (1) 
-1.1101684869608079

>  <r_i_glide_lipo>  (1) 
-0.50549874857666111

>  <r_i_glide_metal>  (1) 
-0

>  <r_i_glide_rewards>  (1) 
-2.57954708568974

>  <r_lp_Energy>  (1) 
3.7227389999999998

>  <r_lp_tautomer_probability>  (1) 
0.49999999999999867

>  <s_epik_cmdline>  (1) 
J2VwaWtfcHl0aG9uJywgJy1waHQnLCAnMS4wJywgJy1waCcsICc3LjQnLCAnLXRuJywgJzgnLCAnLW1hJywgJzUwMCcsICctaW1hZScsICc8aW5maWxlLm1hZT4nLCAnLW9tYWUnLCAnPG91dGZpbGUubWFlPic=

>  <s_epik_input>  (1) 
W25IXTFbY0hdbltjSF1jMVtDSDNd

>  <s_glide_docking_method>  (1) 
confgen

>  <s_i_glide_gridfile>  (1) 
gpcr_drd2_6luq_protein_autoprepared_prepared

>  <s_lp_Force_Field>  (1) 
S-OPLS

>  <s_lp_Variant>  (1) 
Pocket2Mol_8-3

>  <s_m_source_file>  (1) 
generated_generic_title2_ligand_Pocket2Mol_2026-06-23_prepared.sdf

>  <GenAI_Model>  (1) 
Pocket2Mol

>  <Protein>  (1) 
generic_title2

$$$$
Pocket2Mol_8
     RDKit          3D

  0  0  0  0  0  0  0  0  0  0999 V3000
M  V30 BEGIN CTAB
M  V30 COUNTS 12 12 0 0 1
M  V30 BEGIN ATOM
M  V30 1 N 9.375411 7.506407 -7.992272 0
M  V30 2 C 9.374736 6.871477 -6.785124 0
M  V30 3 C 10.665377 7.029998 -6.301163 0
M  V30 4 C 10.581962 7.989429 -8.186470 0
M  V30 5 C 11.232852 6.535463 -5.009623 0
M  V30 6 N 11.464525 7.766297 -7.220368 0
M  V30 7 H 8.499795 6.382800 -6.378100 0
M  V30 8 H 10.840703 8.537937 -9.080428 0
M  V30 9 H 10.479684 5.996591 -4.435145 0
M  V30 10 H 12.063674 5.851858 -5.183186 0
M  V30 11 H 11.592628 7.358829 -4.391695 0
M  V30 12 H 8.582388 7.590301 -8.626923 0
M  V30 END ATOM
M  V30 BEGIN BOND
M  V30 1 1 2 1
M  V30 2 2 3 2
M  V30 3 1 4 1
M  V30 4 1 5 3
M  V30 5 1 6 3
M  V30 6 2 6 4
M  V30 7 1 7 2
M  V30 8 1 8 4
M  V30 9 1 9 5
M  V30 10 1 10 5
M  V30 11 1 11 5
M  V30 12 1 12 1
M  V30 END BOND
M  V30 END CTAB
M  END
>  <i_epik_Tot_Q>  (1) 
0

>  <i_epik_Tot_abs_Q>  (1) 
0

>  <i_i_glide_confnum>  (1) 
1

>  <i_i_glide_lignum>  (1) 
11

>  <i_i_glide_posenum>  (1) 
390

>  <i_i_glide_rotatable_bonds>  (1) 
0

>  <i_lp_mmshare_version>  (1) 
72125

>  <i_m_source_file_index>  (1) 
9

>  <i_f3d_flags>  (1) 
0

>  <num_sample>  (1) 
50

>  <b_lp_Chiralities_Consistent>  (1) 
1

>  <r_epik_Charging_Adjusted_Penalty>  (1) 
1.2833377634270211

>  <r_epik_Ionization_Penalty>  (1) 
0.5469164599317381

>  <r_epik_Ionization_Penalty_Charging>  (1) 
0.546916339904576

>  <r_epik_Ionization_Penalty_Neutral>  (1) 
1.2002716213740492e-07

>  <r_epik_State_Penalty>  (1) 
0.73642142352244522

>  <r_glide_ring_energy>  (1) 
0

>  <r_i_docking_score>  (1) 
-3.5960904376090181

>  <r_i_glide_ecoul>  (1) 
-3.8381964564755924

>  <r_i_glide_eff_state_penalty>  (1) 
0.73642142352244522

>  <r_i_glide_einternal>  (1) 
0

>  <r_i_glide_emodel>  (1) 
-21.848544202164231

>  <r_i_glide_emodel_strain>  (1) 
0

>  <r_i_glide_energy>  (1) 
-16.542644489276761

>  <r_i_glide_erotb>  (1) 
0

>  <r_i_glide_esite>  (1) 
-0.10566335353606691

>  <r_i_glide_evdw>  (1) 
-12.704448032801167

>  <r_i_glide_gscore>  (1) 
-4.3325118611314632

>  <r_i_glide_gscore_strain>  (1) 
0

>  <r_i_glide_hbond>  (1) 
-0.16

>  <r_i_glide_ligand_efficiency>  (1) 
-0.59934840626816965

>  <r_i_glide_ligand_efficiency_ln>  (1) 
-1.2881089783151582

>  <r_i_glide_ligand_efficiency_sa>  (1) 
-1.0890883313110147

>  <r_i_glide_lipo>  (1) 
-0.60589663748399869

>  <r_i_glide_metal>  (1) 
-0

>  <r_i_glide_rewards>  (1) 
-2.25

>  <r_lp_Energy>  (1) 
3.7227389999999998

>  <r_lp_tautomer_probability>  (1) 
0.49999999999999867

>  <s_epik_cmdline>  (1) 
J2VwaWtfcHl0aG9uJywgJy1waHQnLCAnMS4wJywgJy1waCcsICc3LjQnLCAnLXRuJywgJzgnLCAnLW1hJywgJzUwMCcsICctaW1hZScsICc8aW5maWxlLm1hZT4nLCAnLW9tYWUnLCAnPG91dGZpbGUubWFlPic=

>  <s_epik_input>  (1) 
W25IXTFbY0hdbltjSF1jMVtDSDNd

>  <s_glide_docking_method>  (1) 
confgen

>  <s_i_glide_gridfile>  (1) 
gpcr_drd2_6luq_protein_autoprepared_prepared

>  <s_lp_Force_Field>  (1) 
S-OPLS

>  <s_lp_Variant>  (1) 
Pocket2Mol_8-3

>  <s_m_source_file>  (1) 
generated_generic_title2_ligand_Pocket2Mol_2026-06-23_prepared.sdf

>  <GenAI_Model>  (1) 
Pocket2Mol

>  <Protein>  (1) 
generic_title2

$$$$
Pocket2Mol_8
     RDKit          3D

  0  0  0  0  0  0  0  0  0  0999 V3000
M  V30 BEGIN CTAB
M  V30 COUNTS 12 12 0 0 1
M  V30 BEGIN ATOM
M  V30 1 N 10.731505 7.492664 -5.974797 0
M  V30 2 C 11.375532 7.294928 -4.785022 0
M  V30 3 C 11.775436 8.567028 -4.386923 0
M  V30 4 C 10.763541 8.779791 -6.236745 0
M  V30 5 C 12.520758 8.957875 -3.151157 0
M  V30 6 N 11.375410 9.545495 -5.340836 0
M  V30 7 H 11.493255 6.320518 -4.331677 0
M  V30 8 H 10.314833 9.190249 -7.128727 0
M  V30 9 H 12.899395 8.084774 -2.619744 0
M  V30 10 H 13.372647 9.590303 -3.394498 0
M  V30 11 H 11.881625 9.514011 -2.464880 0
M  V30 12 H 10.303235 6.778797 -6.548230 0
M  V30 END ATOM
M  V30 BEGIN BOND
M  V30 1 1 2 1
M  V30 2 2 3 2
M  V30 3 1 4 1
M  V30 4 1 5 3
M  V30 5 1 6 3
M  V30 6 2 6 4
M  V30 7 1 7 2
M  V30 8 1 8 4
M  V30 9 1 9 5
M  V30 10 1 10 5
M  V30 11 1 11 5
M  V30 12 1 12 1
M  V30 END BOND
M  V30 END CTAB
M  END
>  <i_epik_Tot_Q>  (1) 
0

>  <i_epik_Tot_abs_Q>  (1) 
0

>  <i_i_glide_confnum>  (1) 
1

>  <i_i_glide_lignum>  (1) 
11

>  <i_i_glide_posenum>  (1) 
307

>  <i_i_glide_rotatable_bonds>  (1) 
0

>  <i_lp_mmshare_version>  (1) 
72125

>  <i_m_source_file_index>  (1) 
9

>  <i_f3d_flags>  (1) 
0

>  <num_sample>  (1) 
50

>  <b_lp_Chiralities_Consistent>  (1) 
1

>  <r_epik_Charging_Adjusted_Penalty>  (1) 
1.2833377634270211

>  <r_epik_Ionization_Penalty>  (1) 
0.5469164599317381

>  <r_epik_Ionization_Penalty_Charging>  (1) 
0.546916339904576

>  <r_epik_Ionization_Penalty_Neutral>  (1) 
1.2002716213740492e-07

>  <r_epik_State_Penalty>  (1) 
0.73642142352244522

>  <r_glide_ring_energy>  (1) 
0

>  <r_i_docking_score>  (1) 
-3.5895228398516879

>  <r_i_glide_ecoul>  (1) 
-1.829504042581358

>  <r_i_glide_eff_state_penalty>  (1) 
0.73642142352244522

>  <r_i_glide_einternal>  (1) 
0

>  <r_i_glide_emodel>  (1) 
-21.695777282525771

>  <r_i_glide_emodel_strain>  (1) 
0

>  <r_i_glide_energy>  (1) 
-16.397920713239962

>  <r_i_glide_erotb>  (1) 
0

>  <r_i_glide_esite>  (1) 
0

>  <r_i_glide_evdw>  (1) 
-14.568416670658605

>  <r_i_glide_gscore>  (1) 
-4.325944263374133

>  <r_i_glide_gscore_strain>  (1) 
0

>  <r_i_glide_hbond>  (1) 
0

>  <r_i_glide_ligand_efficiency>  (1) 
-0.59825380664194794

>  <r_i_glide_ligand_efficiency_ln>  (1) 
-1.2857564841874509

>  <r_i_glide_ligand_efficiency_sa>  (1) 
-1.0870993117893009

>  <r_i_glide_lipo>  (1) 
-0.71749155467235948

>  <r_i_glide_metal>  (1) 
-0

>  <r_i_glide_rewards>  (1) 
-2.6056062687816395

>  <r_lp_Energy>  (1) 
3.7227389999999998

>  <r_lp_tautomer_probability>  (1) 
0.49999999999999867

>  <s_epik_cmdline>  (1) 
J2VwaWtfcHl0aG9uJywgJy1waHQnLCAnMS4wJywgJy1waCcsICc3LjQnLCAnLXRuJywgJzgnLCAnLW1hJywgJzUwMCcsICctaW1hZScsICc8aW5maWxlLm1hZT4nLCAnLW9tYWUnLCAnPG91dGZpbGUubWFlPic=

>  <s_epik_input>  (1) 
W25IXTFbY0hdbltjSF1jMVtDSDNd

>  <s_glide_docking_method>  (1) 
confgen

>  <s_i_glide_gridfile>  (1) 
gpcr_drd2_6luq_protein_autoprepared_prepared

>  <s_lp_Force_Field>  (1) 
S-OPLS

>  <s_lp_Variant>  (1) 
Pocket2Mol_8-3

>  <s_m_source_file>  (1) 
generated_generic_title2_ligand_Pocket2Mol_2026-06-23_prepared.sdf

>  <GenAI_Model>  (1) 
Pocket2Mol

>  <Protein>  (1) 
generic_title2

$$$$
Pocket2Mol_35
     RDKit          3D

  0  0  0  0  0  0  0  0  0  0999 V3000
M  V30 BEGIN CTAB
M  V30 COUNTS 15 16 0 0 1
M  V30 BEGIN ATOM
M  V30 1 C 8.975409 5.493981 -9.439359 0
M  V30 2 O 9.008444 5.370125 -7.985026 0
M  V30 3 C 9.784998 6.418222 -7.691594 0
M  V30 4 C 10.205973 7.102298 -8.756664 0
M  V30 5 C 11.031779 8.231878 -8.630837 0
M  V30 6 C 11.422270 8.647944 -7.335804 0
M  V30 7 C 10.973514 7.920731 -6.202994 0
M  V30 8 C 10.143559 6.790252 -6.385278 0
M  V30 9 O 9.775410 6.616582 -9.925122 0
M  V30 10 H 7.939144 5.631444 -9.752938 0
M  V30 11 H 9.353039 4.571670 -9.882776 0
M  V30 12 H 11.361476 8.772279 -9.505936 0
M  V30 13 H 12.056348 9.512648 -7.210334 0
M  V30 14 H 11.263241 8.227910 -5.209133 0
M  V30 15 H 9.790976 6.223635 -5.536322 0
M  V30 END ATOM
M  V30 BEGIN BOND
M  V30 1 1 2 1
M  V30 2 1 3 2
M  V30 3 1 4 3
M  V30 4 2 5 4
M  V30 5 1 6 5
M  V30 6 2 7 6
M  V30 7 2 8 3
M  V30 8 1 8 7
M  V30 9 1 9 1
M  V30 10 1 9 4
M  V30 11 1 10 1
M  V30 12 1 11 1
M  V30 13 1 12 5
M  V30 14 1 13 6
M  V30 15 1 14 7
M  V30 16 1 15 8
M  V30 END BOND
M  V30 END CTAB
M  END
>  <i_epik_Tot_Q>  (1) 
0

>  <i_epik_Tot_abs_Q>  (1) 
0

>  <i_i_glide_confnum>  (1) 
1

>  <i_i_glide_lignum>  (1) 
40

>  <i_i_glide_posenum>  (1) 
276

>  <i_i_glide_rotatable_bonds>  (1) 
0

>  <i_lp_mmshare_version>  (1) 
72125

>  <i_m_source_file_index>  (1) 
36

>  <i_f3d_flags>  (1) 
0

>  <num_sample>  (1) 
50

>  <b_lp_Chiralities_Consistent>  (1) 
1

>  <r_epik_Charging_Adjusted_Penalty>  (1) 
0

>  <r_epik_Ionization_Penalty>  (1) 
0

>  <r_epik_Ionization_Penalty_Charging>  (1) 
0

>  <r_epik_Ionization_Penalty_Neutral>  (1) 
0

>  <r_epik_State_Penalty>  (1) 
-0

>  <r_glide_ring_energy>  (1) 
0

>  <r_i_docking_score>  (1) 
-3.5789532588899919

>  <r_i_glide_ecoul>  (1) 
-0.49021139151384618

>  <r_i_glide_eff_state_penalty>  (1) 
-0

>  <r_i_glide_einternal>  (1) 
0

>  <r_i_glide_emodel>  (1) 
-23.115983918218092

>  <r_i_glide_emodel_strain>  (1) 
0

>  <r_i_glide_energy>  (1) 
-18.500971453558577

>  <r_i_glide_erotb>  (1) 
0

>  <r_i_glide_esite>  (1) 
-0.070844787297103057

>  <r_i_glide_evdw>  (1) 
-18.010760062044731

>  <r_i_glide_gscore>  (1) 
-3.5789532588899919

>  <r_i_glide_gscore_strain>  (1) 
0

>  <r_i_glide_hbond>  (1) 
0

>  <r_i_glide_ligand_efficiency>  (1) 
-0.39766147320999912

>  <r_i_glide_ligand_efficiency_ln>  (1) 
-1.1193937655364239

>  <r_i_glide_ligand_efficiency_sa>  (1) 
-0.82716919747510742

>  <r_i_glide_lipo>  (1) 
-0.88403875976357593

>  <r_i_glide_metal>  (1) 
-0

>  <r_i_glide_rewards>  (1) 
-1.6499999999999999

>  <r_lp_Energy>  (1) 
19.342482

>  <r_lp_tautomer_probability>  (1) 
1

>  <s_epik_Chemistry_Notes>  (1) 
This compound contains an acetal/aminal-like group ( X-CH(R)-Y where X, Y are N, S, or O) that may be acid/base labile, releasing an aldehyde.

>  <s_epik_cmdline>  (1) 
J2VwaWtfcHl0aG9uJywgJy1waHQnLCAnMS4wJywgJy1waCcsICc3LjQnLCAnLXRuJywgJzgnLCAnLW1hJywgJzUwMCcsICctaW1hZScsICc8aW5maWxlLm1hZT4nLCAnLW9tYWUnLCAnPG91dGZpbGUubWFlPic=

>  <s_epik_input>  (1) 
TzFbQ0gyXU9jKGMxMilbY0hdW2NIXVtjSF1bY0hdMg==

>  <s_glide_docking_method>  (1) 
confgen

>  <s_i_glide_gridfile>  (1) 
gpcr_drd2_6luq_protein_autoprepared_prepared

>  <s_lp_Force_Field>  (1) 
S-OPLS

>  <s_lp_Variant>  (1) 
Pocket2Mol_35-1

>  <s_m_source_file>  (1) 
generated_generic_title2_ligand_Pocket2Mol_2026-06-23_prepared.sdf

>  <GenAI_Model>  (1) 
Pocket2Mol

>  <Protein>  (1) 
generic_title2

$$$$
Pocket2Mol_10
     RDKit          3D

  0  0  0  0  0  0  0  0  0  0999 V3000
M  V30 BEGIN CTAB
M  V30 COUNTS 14 13 0 0 1
M  V30 BEGIN ATOM
M  V30 1 N 9.375410 7.372043 -8.385037 0 CHG=1
M  V30 2 C 10.385534 7.911947 -9.319008 0
M  V30 3 C 9.432380 5.899418 -8.265064 0
M  V30 4 C 9.385145 8.046673 -7.069733 0
M  V30 5 H 11.396987 7.726199 -8.954949 0
M  V30 6 H 10.257564 8.987527 -9.444352 0
M  V30 7 H 10.284661 7.450671 -10.302206 0
M  V30 8 H 10.376120 5.576340 -7.823445 0
M  V30 9 H 8.616533 5.535656 -7.638250 0
M  V30 10 H 9.330410 5.428023 -9.243373 0
M  V30 11 H 10.328724 7.882007 -6.548210 0
M  V30 12 H 9.238503 9.120238 -7.188532 0
M  V30 13 H 8.575409 7.673588 -6.441237 0
M  V30 14 H 8.453330 7.582829 -8.788445 0
M  V30 END ATOM
M  V30 BEGIN BOND
M  V30 1 1 2 1
M  V30 2 1 3 1
M  V30 3 1 4 1
M  V30 4 1 5 2
M  V30 5 1 6 2
M  V30 6 1 7 2
M  V30 7 1 8 3
M  V30 8 1 9 3
M  V30 9 1 10 3
M  V30 10 1 11 4
M  V30 11 1 12 4
M  V30 12 1 13 4
M  V30 13 1 14 1
M  V30 END BOND
M  V30 END CTAB
M  END
>  <i_epik_Tot_Q>  (1) 
1

>  <i_epik_Tot_abs_Q>  (1) 
1

>  <i_i_glide_confnum>  (1) 
1

>  <i_i_glide_lignum>  (1) 
13

>  <i_i_glide_posenum>  (1) 
100

>  <i_i_glide_rotatable_bonds>  (1) 
0

>  <i_lp_mmshare_version>  (1) 
72125

>  <i_m_source_file_index>  (1) 
11

>  <i_f3d_flags>  (1) 
0

>  <num_sample>  (1) 
50

>  <b_lp_Chiralities_Consistent>  (1) 
1

>  <r_epik_Charging_Adjusted_Penalty>  (1) 
0.0093753769364623638

>  <r_epik_Ionization_Penalty>  (1) 
0.0046876884682311671

>  <r_epik_Ionization_Penalty_Charging>  (1) 
0.0046876884682311671

>  <r_epik_Ionization_Penalty_Neutral>  (1) 
0

>  <r_epik_State_Penalty>  (1) 
0.0046876884682311958

>  <r_glide_ring_energy>  (1) 
0

>  <r_i_docking_score>  (1) 
-3.5742359859975994

>  <r_i_glide_ecoul>  (1) 
-4.4411077639664951

>  <r_i_glide_eff_state_penalty>  (1) 
0.0046876884682311958

>  <r_i_glide_einternal>  (1) 
0

>  <r_i_glide_emodel>  (1) 
-17.520394892414814

>  <r_i_glide_emodel_strain>  (1) 
0

>  <r_i_glide_energy>  (1) 
-11.696257961383619

>  <r_i_glide_erotb>  (1) 
0

>  <r_i_glide_esite>  (1) 
-0.10000000000000001

>  <r_i_glide_evdw>  (1) 
-7.255150197417124

>  <r_i_glide_gscore>  (1) 
-3.5789236744658304

>  <r_i_glide_gscore_strain>  (1) 
0

>  <r_i_glide_hbond>  (1) 
-0.20000000000000001

>  <r_i_glide_ligand_efficiency>  (1) 
-0.89355899649939985

>  <r_i_glide_ligand_efficiency_ln>  (1) 
-1.4978185609591794

>  <r_i_glide_ligand_efficiency_sa>  (1) 
-1.4184364910387959

>  <r_i_glide_lipo>  (1) 
0

>  <r_i_glide_metal>  (1) 
-0

>  <r_i_glide_rewards>  (1) 
-2.25

>  <r_lp_Energy>  (1) 
13.212527

>  <s_epik_cmdline>  (1) 
J2VwaWtfcHl0aG9uJywgJy1waHQnLCAnMS4wJywgJy1waCcsICc3LjQnLCAnLXRuJywgJzgnLCAnLW1hJywgJzUwMCcsICctaW1hZScsICc8aW5maWxlLm1hZT4nLCAnLW9tYWUnLCAnPG91dGZpbGUubWFlPic=

>  <s_epik_input>  (1) 
W0NIM11OKFtDSDNdKVtDSDNd

>  <s_glide_docking_method>  (1) 
confgen

>  <s_i_glide_gridfile>  (1) 
gpcr_drd2_6luq_protein_autoprepared_prepared

>  <s_lp_Force_Field>  (1) 
S-OPLS

>  <s_lp_Variant>  (1) 
Pocket2Mol_10-1

>  <s_m_source_file>  (1) 
generated_generic_title2_ligand_Pocket2Mol_2026-06-23_prepared.sdf

>  <GenAI_Model>  (1) 
Pocket2Mol

>  <Protein>  (1) 
generic_title2

$$$$
Pocket2Mol_44
     RDKit          3D

  0  0  0  0  0  0  0  0  0  0999 V3000
M  V30 BEGIN CTAB
M  V30 COUNTS 15 16 0 0 1
M  V30 BEGIN ATOM
M  V30 1 C 11.775410 9.281242 -5.256301 0
M  V30 2 O 10.825377 8.172347 -5.185025 0
M  V30 3 C 10.666454 7.937558 -6.488508 0
M  V30 4 C 11.408844 8.711750 -7.279773 0
M  V30 5 C 11.350686 8.581833 -8.678803 0
M  V30 6 N 10.516859 7.652985 -9.209411 0 CHG=1
M  V30 7 C 9.741247 6.845395 -8.435528 0
M  V30 8 C 9.797859 6.969815 -7.025612 0
M  V30 9 O 12.175410 9.590227 -6.629276 0
M  V30 10 H 12.660413 9.036598 -4.667598 0
M  V30 11 H 11.310920 10.167701 -4.820627 0
M  V30 12 H 11.922020 9.176960 -9.377606 0
M  V30 13 H 9.106366 6.144077 -8.960502 0
M  V30 14 H 9.190282 6.347867 -6.385026 0
M  V30 15 H 10.463821 7.559133 -10.224681 0
M  V30 END ATOM
M  V30 BEGIN BOND
M  V30 1 1 2 1
M  V30 2 1 3 2
M  V30 3 2 4 3
M  V30 4 1 5 4
M  V30 5 2 6 5
M  V30 6 1 7 6
M  V30 7 1 8 3
M  V30 8 2 8 7
M  V30 9 1 9 1
M  V30 10 1 9 4
M  V30 11 1 10 1
M  V30 12 1 11 1
M  V30 13 1 12 5
M  V30 14 1 13 7
M  V30 15 1 14 8
M  V30 16 1 15 6
M  V30 END BOND
M  V30 END CTAB
M  END
>  <i_epik_Tot_Q>  (1) 
1

>  <i_epik_Tot_abs_Q>  (1) 
1

>  <i_i_glide_confnum>  (1) 
1

>  <i_i_glide_lignum>  (1) 
50

>  <i_i_glide_posenum>  (1) 
214

>  <i_i_glide_rotatable_bonds>  (1) 
0

>  <i_lp_mmshare_version>  (1) 
72125

>  <i_m_source_file_index>  (1) 
45

>  <i_f3d_flags>  (1) 
0

>  <num_sample>  (1) 
50

>  <b_lp_Chiralities_Consistent>  (1) 
1

>  <r_epik_Charging_Adjusted_Penalty>  (1) 
2.6035637255513002

>  <r_epik_Ionization_Penalty>  (1) 
1.3017818627756499

>  <r_epik_Ionization_Penalty_Charging>  (1) 
1.3017818627756499

>  <r_epik_Ionization_Penalty_Neutral>  (1) 
0

>  <r_epik_State_Penalty>  (1) 
1.3017818627756503

>  <r_glide_ring_energy>  (1) 
0

>  <r_i_docking_score>  (1) 
-3.5495918578315715

>  <r_i_glide_ecoul>  (1) 
-1.8149355419542026

>  <r_i_glide_eff_state_penalty>  (1) 
1.3017818627756503

>  <r_i_glide_einternal>  (1) 
0

>  <r_i_glide_emodel>  (1) 
-27.906198496409544

>  <r_i_glide_emodel_strain>  (1) 
0

>  <r_i_glide_energy>  (1) 
-18.825976651112917

>  <r_i_glide_erotb>  (1) 
0

>  <r_i_glide_esite>  (1) 
-0.028841674358064624

>  <r_i_glide_evdw>  (1) 
-17.011041109158715

>  <r_i_glide_gscore>  (1) 
-4.8513737206072216

>  <r_i_glide_gscore_strain>  (1) 
0

>  <r_i_glide_hbond>  (1) 
0

>  <r_i_glide_ligand_efficiency>  (1) 
-0.39439909531461903

>  <r_i_glide_ligand_efficiency_ln>  (1) 
-1.1102103627606066

>  <r_i_glide_ligand_efficiency_sa>  (1) 
-0.82038317799024529

>  <r_i_glide_lipo>  (1) 
-0.69803187826267188

>  <r_i_glide_metal>  (1) 
-0

>  <r_i_glide_rewards>  (1) 
-3.0017077812354191

>  <r_lp_Energy>  (1) 
25.893000999999998

>  <s_epik_Chemistry_Notes>  (1) 
This compound contains an acetal/aminal-like group ( X-CH(R)-Y where X, Y are N, S, or O) that may be acid/base labile, releasing an aldehyde.

>  <s_epik_cmdline>  (1) 
J2VwaWtfcHl0aG9uJywgJy1waHQnLCAnMS4wJywgJy1waCcsICc3LjQnLCAnLXRuJywgJzgnLCAnLW1hJywgJzUwMCcsICctaW1hZScsICc8aW5maWxlLm1hZT4nLCAnLW9tYWUnLCAnPG91dGZpbGUubWFlPic=

>  <s_epik_input>  (1) 
TzFbQ0gyXU9jKGMxMilbY0hdbltjSF1bY0hdMg==

>  <s_glide_docking_method>  (1) 
confgen

>  <s_i_glide_gridfile>  (1) 
gpcr_drd2_6luq_protein_autoprepared_prepared

>  <s_lp_Force_Field>  (1) 
S-OPLS

>  <s_lp_Variant>  (1) 
Pocket2Mol_44-2

>  <s_m_source_file>  (1) 
generated_generic_title2_ligand_Pocket2Mol_2026-06-23_prepared.sdf

>  <GenAI_Model>  (1) 
Pocket2Mol

>  <Protein>  (1) 
generic_title2

$$$$
Pocket2Mol_8
     RDKit          3D

  0  0  0  0  0  0  0  0  0  0999 V3000
M  V30 BEGIN CTAB
M  V30 COUNTS 12 12 0 0 1
M  V30 BEGIN ATOM
M  V30 1 N 10.577299 8.783641 -6.086914 0
M  V30 2 C 11.601885 8.788276 -7.075293 0
M  V30 3 C 11.102027 8.382499 -8.306771 0
M  V30 4 C 9.540505 8.371595 -6.807414 0
M  V30 5 C 11.757175 8.222104 -9.635641 0
M  V30 6 N 9.775410 8.130760 -8.077145 0
M  V30 7 H 12.609443 9.082643 -6.819725 0
M  V30 8 H 8.558270 8.245900 -6.375827 0
M  V30 9 H 12.809584 8.504773 -9.585396 0
M  V30 10 H 11.700369 7.190029 -9.976413 0
M  V30 11 H 11.273901 8.846418 -10.384108 0
M  V30 12 H 9.093514 7.817860 -8.760051 0
M  V30 END ATOM
M  V30 BEGIN BOND
M  V30 1 1 2 1
M  V30 2 2 3 2
M  V30 3 2 4 1
M  V30 4 1 5 3
M  V30 5 1 6 3
M  V30 6 1 6 4
M  V30 7 1 7 2
M  V30 8 1 8 4
M  V30 9 1 9 5
M  V30 10 1 10 5
M  V30 11 1 11 5
M  V30 12 1 12 6
M  V30 END BOND
M  V30 END CTAB
M  END
>  <i_epik_Tot_Q>  (1) 
0

>  <i_epik_Tot_abs_Q>  (1) 
0

>  <i_i_glide_confnum>  (1) 
1

>  <i_i_glide_lignum>  (1) 
9

>  <i_i_glide_posenum>  (1) 
282

>  <i_i_glide_rotatable_bonds>  (1) 
0

>  <i_lp_mmshare_version>  (1) 
72125

>  <i_m_source_file_index>  (1) 
9

>  <i_f3d_flags>  (1) 
0

>  <num_sample>  (1) 
50

>  <b_lp_Chiralities_Consistent>  (1) 
1

>  <r_epik_Charging_Adjusted_Penalty>  (1) 
0.90509379346265462

>  <r_epik_Ionization_Penalty>  (1) 
0.31828505333430857

>  <r_epik_Ionization_Penalty_Charging>  (1) 
0.31828499876078775

>  <r_epik_Ionization_Penalty_Neutral>  (1) 
5.457352079622119e-08

>  <r_epik_State_Penalty>  (1) 
0.58680879470186686

>  <r_glide_ring_energy>  (1) 
0

>  <r_i_docking_score>  (1) 
-3.5495721755535903

>  <r_i_glide_ecoul>  (1) 
-2.6381336479859296

>  <r_i_glide_eff_state_penalty>  (1) 
0.58680879470186686

>  <r_i_glide_einternal>  (1) 
0

>  <r_i_glide_emodel>  (1) 
-21.446539022456435

>  <r_i_glide_emodel_strain>  (1) 
0

>  <r_i_glide_energy>  (1) 
-16.331107831068262

>  <r_i_glide_erotb>  (1) 
0

>  <r_i_glide_esite>  (1) 
-0.10260228840958477

>  <r_i_glide_evdw>  (1) 
-13.692974183082333

>  <r_i_glide_gscore>  (1) 
-4.1363809702554573

>  <r_i_glide_gscore_strain>  (1) 
0

>  <r_i_glide_hbond>  (1) 
-0.072091231863781788

>  <r_i_glide_ligand_efficiency>  (1) 
-0.59159536259226508

>  <r_i_glide_ligand_efficiency_ln>  (1) 
-1.2714462741788701

>  <r_i_glide_ligand_efficiency_sa>  (1) 
-1.0750001159904015

>  <r_i_glide_lipo>  (1) 
-0.6313186936300843

>  <r_i_glide_metal>  (1) 
-0

>  <r_i_glide_rewards>  (1) 
-2.25

>  <r_lp_Energy>  (1) 
2.6351399999999998

>  <r_lp_tautomer_probability>  (1) 
0.49999999999999867

>  <s_epik_cmdline>  (1) 
J2VwaWtfcHl0aG9uJywgJy1waHQnLCAnMS4wJywgJy1waCcsICc3LjQnLCAnLXRuJywgJzgnLCAnLW1hJywgJzUwMCcsICctaW1hZScsICc8aW5maWxlLm1hZT4nLCAnLW9tYWUnLCAnPG91dGZpbGUubWFlPic=

>  <s_epik_input>  (1) 
W25IXTFbY0hdbltjSF1jMVtDSDNd

>  <s_glide_docking_method>  (1) 
confgen

>  <s_i_glide_gridfile>  (1) 
gpcr_drd2_6luq_protein_autoprepared_prepared

>  <s_lp_Force_Field>  (1) 
S-OPLS

>  <s_lp_Variant>  (1) 
Pocket2Mol_8-1

>  <s_m_source_file>  (1) 
generated_generic_title2_ligand_Pocket2Mol_2026-06-23_prepared.sdf

>  <GenAI_Model>  (1) 
Pocket2Mol

>  <Protein>  (1) 
generic_title2

$$$$
Pocket2Mol_8
     RDKit          3D

  0  0  0  0  0  0  0  0  0  0999 V3000
M  V30 BEGIN CTAB
M  V30 COUNTS 12 12 0 0 1
M  V30 BEGIN ATOM
M  V30 1 N 12.295407 7.165408 -2.515365 0
M  V30 2 C 11.775409 6.921846 -3.754480 0
M  V30 3 C 11.775411 8.160309 -4.385211 0
M  V30 4 C 12.575291 8.448073 -2.445822 0
M  V30 5 C 11.312810 8.491724 -5.770400 0
M  V30 6 N 12.302685 9.166459 -3.528032 0
M  V30 7 H 11.456668 5.942471 -4.080824 0
M  V30 8 H 12.997494 8.893142 -1.557079 0
M  V30 9 H 11.181177 7.590334 -6.370770 0
M  V30 10 H 10.357212 9.015434 -5.750382 0
M  V30 11 H 12.030231 9.128325 -6.288327 0
M  V30 12 H 12.437051 6.482710 -1.784186 0
M  V30 END ATOM
M  V30 BEGIN BOND
M  V30 1 1 2 1
M  V30 2 2 3 2
M  V30 3 1 4 1
M  V30 4 1 5 3
M  V30 5 1 6 3
M  V30 6 2 6 4
M  V30 7 1 7 2
M  V30 8 1 8 4
M  V30 9 1 9 5
M  V30 10 1 10 5
M  V30 11 1 11 5
M  V30 12 1 12 1
M  V30 END BOND
M  V30 END CTAB
M  END
>  <i_epik_Tot_Q>  (1) 
0

>  <i_epik_Tot_abs_Q>  (1) 
0

>  <i_i_glide_confnum>  (1) 
1

>  <i_i_glide_lignum>  (1) 
11

>  <i_i_glide_posenum>  (1) 
349

>  <i_i_glide_rotatable_bonds>  (1) 
0

>  <i_lp_mmshare_version>  (1) 
72125

>  <i_m_source_file_index>  (1) 
9

>  <i_f3d_flags>  (1) 
0

>  <num_sample>  (1) 
50

>  <b_lp_Chiralities_Consistent>  (1) 
1

>  <r_epik_Charging_Adjusted_Penalty>  (1) 
1.2833377634270211

>  <r_epik_Ionization_Penalty>  (1) 
0.5469164599317381

>  <r_epik_Ionization_Penalty_Charging>  (1) 
0.546916339904576

>  <r_epik_Ionization_Penalty_Neutral>  (1) 
1.2002716213740492e-07

>  <r_epik_State_Penalty>  (1) 
0.73642142352244522

>  <r_glide_ring_energy>  (1) 
0

>  <r_i_docking_score>  (1) 
-3.5465634804775559

>  <r_i_glide_ecoul>  (1) 
-1.365767573132215

>  <r_i_glide_eff_state_penalty>  (1) 
0.73642142352244522

>  <r_i_glide_einternal>  (1) 
0

>  <r_i_glide_emodel>  (1) 
-21.354993377414875

>  <r_i_glide_emodel_strain>  (1) 
0

>  <r_i_glide_energy>  (1) 
-16.109747870689322

>  <r_i_glide_erotb>  (1) 
0

>  <r_i_glide_esite>  (1) 
0

>  <r_i_glide_evdw>  (1) 
-14.743980297557108

>  <r_i_glide_gscore>  (1) 
-4.282984904000001

>  <r_i_glide_gscore_strain>  (1) 
0

>  <r_i_glide_hbond>  (1) 
0

>  <r_i_glide_ligand_efficiency>  (1) 
-0.59109391341292594

>  <r_i_glide_ligand_efficiency_ln>  (1) 
-1.2703685684849528

>  <r_i_glide_ligand_efficiency_sa>  (1) 
-1.0740889223603656

>  <r_i_glide_lipo>  (1) 
-0.64092075315231323

>  <r_i_glide_metal>  (1) 
-0

>  <r_i_glide_rewards>  (1) 
-2.7000000000000002

>  <r_lp_Energy>  (1) 
3.7227389999999998

>  <r_lp_tautomer_probability>  (1) 
0.49999999999999867

>  <s_epik_cmdline>  (1) 
J2VwaWtfcHl0aG9uJywgJy1waHQnLCAnMS4wJywgJy1waCcsICc3LjQnLCAnLXRuJywgJzgnLCAnLW1hJywgJzUwMCcsICctaW1hZScsICc8aW5maWxlLm1hZT4nLCAnLW9tYWUnLCAnPG91dGZpbGUubWFlPic=

>  <s_epik_input>  (1) 
W25IXTFbY0hdbltjSF1jMVtDSDNd

>  <s_glide_docking_method>  (1) 
confgen

>  <s_i_glide_gridfile>  (1) 
gpcr_drd2_6luq_protein_autoprepared_prepared

>  <s_lp_Force_Field>  (1) 
S-OPLS

>  <s_lp_Variant>  (1) 
Pocket2Mol_8-3

>  <s_m_source_file>  (1) 
generated_generic_title2_ligand_Pocket2Mol_2026-06-23_prepared.sdf

>  <GenAI_Model>  (1) 
Pocket2Mol

>  <Protein>  (1) 
generic_title2

$$$$
Pocket2Mol_8
     RDKit          3D

  0  0  0  0  0  0  0  0  0  0999 V3000
M  V30 BEGIN CTAB
M  V30 COUNTS 12 12 0 0 1
M  V30 BEGIN ATOM
M  V30 1 N 11.953085 7.990746 -9.588168 0
M  V30 2 C 11.763064 8.232331 -8.197651 0
M  V30 3 C 10.412178 8.201476 -7.871215 0
M  V30 4 C 10.695568 7.835351 -9.984492 0
M  V30 5 C 9.698464 8.390227 -6.574963 0
M  V30 6 N 9.776455 7.944360 -9.052687 0
M  V30 7 H 12.610475 8.406908 -7.551477 0
M  V30 8 H 10.442557 7.631531 -11.014596 0
M  V30 9 H 10.234334 9.091445 -5.934139 0
M  V30 10 H 8.691371 8.780215 -6.735347 0
M  V30 11 H 9.608070 7.443008 -6.042699 0
M  V30 12 H 8.767406 7.855512 -9.187178 0
M  V30 END ATOM
M  V30 BEGIN BOND
M  V30 1 1 2 1
M  V30 2 2 3 2
M  V30 3 2 4 1
M  V30 4 1 5 3
M  V30 5 1 6 3
M  V30 6 1 6 4
M  V30 7 1 7 2
M  V30 8 1 8 4
M  V30 9 1 9 5
M  V30 10 1 10 5
M  V30 11 1 11 5
M  V30 12 1 12 6
M  V30 END BOND
M  V30 END CTAB
M  END
>  <i_epik_Tot_Q>  (1) 
0

>  <i_epik_Tot_abs_Q>  (1) 
0

>  <i_i_glide_confnum>  (1) 
1

>  <i_i_glide_lignum>  (1) 
9

>  <i_i_glide_posenum>  (1) 
66

>  <i_i_glide_rotatable_bonds>  (1) 
0

>  <i_lp_mmshare_version>  (1) 
72125

>  <i_m_source_file_index>  (1) 
9

>  <i_f3d_flags>  (1) 
0

>  <num_sample>  (1) 
50

>  <b_lp_Chiralities_Consistent>  (1) 
1

>  <r_epik_Charging_Adjusted_Penalty>  (1) 
0.90509379346265462

>  <r_epik_Ionization_Penalty>  (1) 
0.31828505333430857

>  <r_epik_Ionization_Penalty_Charging>  (1) 
0.31828499876078775

>  <r_epik_Ionization_Penalty_Neutral>  (1) 
5.457352079622119e-08

>  <r_epik_State_Penalty>  (1) 
0.58680879470186686

>  <r_glide_ring_energy>  (1) 
0

>  <r_i_docking_score>  (1) 
-3.4070989022367946

>  <r_i_glide_ecoul>  (1) 
-3.6739357127058634

>  <r_i_glide_eff_state_penalty>  (1) 
0.58680879470186686

>  <r_i_glide_einternal>  (1) 
0

>  <r_i_glide_emodel>  (1) 
-21.993642821959998

>  <r_i_glide_emodel_strain>  (1) 
0.0090282130412369099

>  <r_i_glide_energy>  (1) 
-17.063435467639181

>  <r_i_glide_erotb>  (1) 
0

>  <r_i_glide_esite>  (1) 
-0.10626041885384924

>  <r_i_glide_evdw>  (1) 
-13.389499754933317

>  <r_i_glide_gscore>  (1) 
-3.9939076969386615

>  <r_i_glide_gscore_strain>  (1) 
0

>  <r_i_glide_hbond>  (1) 
-0.16

>  <r_i_glide_ligand_efficiency>  (1) 
-0.5678498170394658

>  <r_i_glide_ligand_efficiency_ln>  (1) 
-1.2204127682886972

>  <r_i_glide_ligand_efficiency_sa>  (1) 
-1.0318515961783763

>  <r_i_glide_lipo>  (1) 
-0.25708193343226726

>  <r_i_glide_metal>  (1) 
-0

>  <r_i_glide_rewards>  (1) 
-2.25

>  <r_lp_Energy>  (1) 
2.6351399999999998

>  <r_lp_tautomer_probability>  (1) 
0.49999999999999867

>  <s_epik_cmdline>  (1) 
J2VwaWtfcHl0aG9uJywgJy1waHQnLCAnMS4wJywgJy1waCcsICc3LjQnLCAnLXRuJywgJzgnLCAnLW1hJywgJzUwMCcsICctaW1hZScsICc8aW5maWxlLm1hZT4nLCAnLW9tYWUnLCAnPG91dGZpbGUubWFlPic=

>  <s_epik_input>  (1) 
W25IXTFbY0hdbltjSF1jMVtDSDNd

>  <s_glide_docking_method>  (1) 
confgen

>  <s_i_glide_gridfile>  (1) 
gpcr_drd2_6luq_protein_autoprepared_prepared

>  <s_lp_Force_Field>  (1) 
S-OPLS

>  <s_lp_Variant>  (1) 
Pocket2Mol_8-1

>  <s_m_source_file>  (1) 
generated_generic_title2_ligand_Pocket2Mol_2026-06-23_prepared.sdf

>  <GenAI_Model>  (1) 
Pocket2Mol

>  <Protein>  (1) 
generic_title2

$$$$
Pocket2Mol_8
     RDKit          3D

  0  0  0  0  0  0  0  0  0  0999 V3000
M  V30 BEGIN CTAB
M  V30 COUNTS 12 12 0 0 1
M  V30 BEGIN ATOM
M  V30 1 N 11.687161 8.327825 -8.042610 0
M  V30 2 C 11.916150 8.017830 -9.413625 0
M  V30 3 C 10.728526 7.668500 -10.046006 0
M  V30 4 C 10.374765 8.140386 -7.964352 0
M  V30 5 C 10.433111 7.263862 -11.451179 0
M  V30 6 N 9.775424 7.767569 -9.072118 0
M  V30 7 H 12.912137 8.070747 -9.828349 0
M  V30 8 H 9.829819 8.291093 -7.043762 0
M  V30 9 H 11.348251 7.190224 -12.038877 0
M  V30 10 H 9.936100 6.293800 -11.479449 0
M  V30 11 H 9.778879 7.990266 -11.933831 0
M  V30 12 H 8.775666 7.591218 -9.185137 0
M  V30 END ATOM
M  V30 BEGIN BOND
M  V30 1 1 2 1
M  V30 2 2 3 2
M  V30 3 2 4 1
M  V30 4 1 5 3
M  V30 5 1 6 3
M  V30 6 1 6 4
M  V30 7 1 7 2
M  V30 8 1 8 4
M  V30 9 1 9 5
M  V30 10 1 10 5
M  V30 11 1 11 5
M  V30 12 1 12 6
M  V30 END BOND
M  V30 END CTAB
M  END
>  <i_epik_Tot_Q>  (1) 
0

>  <i_epik_Tot_abs_Q>  (1) 
0

>  <i_i_glide_confnum>  (1) 
1

>  <i_i_glide_lignum>  (1) 
9

>  <i_i_glide_posenum>  (1) 
145

>  <i_i_glide_rotatable_bonds>  (1) 
0

>  <i_lp_mmshare_version>  (1) 
72125

>  <i_m_source_file_index>  (1) 
9

>  <i_f3d_flags>  (1) 
0

>  <num_sample>  (1) 
50

>  <b_lp_Chiralities_Consistent>  (1) 
1

>  <r_epik_Charging_Adjusted_Penalty>  (1) 
0.90509379346265462

>  <r_epik_Ionization_Penalty>  (1) 
0.31828505333430857

>  <r_epik_Ionization_Penalty_Charging>  (1) 
0.31828499876078775

>  <r_epik_Ionization_Penalty_Neutral>  (1) 
5.457352079622119e-08

>  <r_epik_State_Penalty>  (1) 
0.58680879470186686

>  <r_glide_ring_energy>  (1) 
0

>  <r_i_docking_score>  (1) 
-3.3864872733006859

>  <r_i_glide_ecoul>  (1) 
-3.8167964945730981

>  <r_i_glide_eff_state_penalty>  (1) 
0.58680879470186686

>  <r_i_glide_einternal>  (1) 
0

>  <r_i_glide_emodel>  (1) 
-20.879515490410327

>  <r_i_glide_emodel_strain>  (1) 
0

>  <r_i_glide_energy>  (1) 
-15.965770169310233

>  <r_i_glide_erotb>  (1) 
0

>  <r_i_glide_esite>  (1) 
-0.11209532660826296

>  <r_i_glide_evdw>  (1) 
-12.148973674737134

>  <r_i_glide_gscore>  (1) 
-3.9732960680025529

>  <r_i_glide_gscore_strain>  (1) 
0

>  <r_i_glide_hbond>  (1) 
-0.16

>  <r_i_glide_ligand_efficiency>  (1) 
-0.56441454555011428

>  <r_i_glide_ligand_efficiency_ln>  (1) 
-1.2130297436537676

>  <r_i_glide_ligand_efficiency_sa>  (1) 
-1.0256092936131065

>  <r_i_glide_lipo>  (1) 
-0.27123258347146861

>  <r_i_glide_metal>  (1) 
-0

>  <r_i_glide_rewards>  (1) 
-2.25

>  <r_lp_Energy>  (1) 
2.6351399999999998

>  <r_lp_tautomer_probability>  (1) 
0.49999999999999867

>  <s_epik_cmdline>  (1) 
J2VwaWtfcHl0aG9uJywgJy1waHQnLCAnMS4wJywgJy1waCcsICc3LjQnLCAnLXRuJywgJzgnLCAnLW1hJywgJzUwMCcsICctaW1hZScsICc8aW5maWxlLm1hZT4nLCAnLW9tYWUnLCAnPG91dGZpbGUubWFlPic=

>  <s_epik_input>  (1) 
W25IXTFbY0hdbltjSF1jMVtDSDNd

>  <s_glide_docking_method>  (1) 
confgen

>  <s_i_glide_gridfile>  (1) 
gpcr_drd2_6luq_protein_autoprepared_prepared

>  <s_lp_Force_Field>  (1) 
S-OPLS

>  <s_lp_Variant>  (1) 
Pocket2Mol_8-1

>  <s_m_source_file>  (1) 
generated_generic_title2_ligand_Pocket2Mol_2026-06-23_prepared.sdf

>  <GenAI_Model>  (1) 
Pocket2Mol

>  <Protein>  (1) 
generic_title2

$$$$
Pocket2Mol_48
     RDKit          3D

  0  0  0  0  0  0  0  0  0  0999 V3000
M  V30 BEGIN CTAB
M  V30 COUNTS 13 12 0 0 1
M  V30 BEGIN ATOM
M  V30 1 C 9.265898 7.153631 -7.033722 0
M  V30 2 O 10.244281 8.130627 -7.343395 0
M  V30 3 C 11.252172 7.636927 -8.209179 0
M  V30 4 C 12.214108 8.790237 -8.510153 0
M  V30 5 O 13.270538 8.390198 -9.357496 0
M  V30 6 H 8.511294 7.595741 -6.385027 0
M  V30 7 H 8.765535 6.790210 -7.932477 0
M  V30 8 H 9.705409 6.304197 -6.509457 0
M  V30 9 H 10.809995 7.262793 -9.134185 0
M  V30 10 H 11.775410 6.808977 -7.729610 0
M  V30 11 H 12.631650 9.182365 -7.582327 0
M  V30 12 H 11.673137 9.603921 -8.993031 0
M  V30 13 H 13.775506 9.164159 -9.585026 0
M  V30 END ATOM
M  V30 BEGIN BOND
M  V30 1 1 2 1
M  V30 2 1 3 2
M  V30 3 1 4 3
M  V30 4 1 5 4
M  V30 5 1 6 1
M  V30 6 1 7 1
M  V30 7 1 8 1
M  V30 8 1 9 3
M  V30 9 1 10 3
M  V30 10 1 11 4
M  V30 11 1 12 4
M  V30 12 1 13 5
M  V30 END BOND
M  V30 END CTAB
M  END
>  <i_epik_Tot_Q>  (1) 
0

>  <i_epik_Tot_abs_Q>  (1) 
0

>  <i_i_glide_confnum>  (1) 
1

>  <i_i_glide_lignum>  (1) 
54

>  <i_i_glide_posenum>  (1) 
249

>  <i_i_glide_rotatable_bonds>  (1) 
3

>  <i_lp_mmshare_version>  (1) 
72125

>  <i_m_source_file_index>  (1) 
49

>  <i_f3d_flags>  (1) 
0

>  <num_sample>  (1) 
50

>  <b_lp_Chiralities_Consistent>  (1) 
1

>  <r_epik_Charging_Adjusted_Penalty>  (1) 
0

>  <r_epik_Ionization_Penalty>  (1) 
5.5888793446441707e-08

>  <r_epik_Ionization_Penalty_Charging>  (1) 
0

>  <r_epik_Ionization_Penalty_Neutral>  (1) 
5.5888793446441707e-08

>  <r_epik_State_Penalty>  (1) 
-0

>  <r_glide_ring_energy>  (1) 
0

>  <r_i_docking_score>  (1) 
-2.3799359072693056

>  <r_i_glide_ecoul>  (1) 
-4.6825553673850884

>  <r_i_glide_eff_state_penalty>  (1) 
-0

>  <r_i_glide_einternal>  (1) 
0.38457211096804333

>  <r_i_glide_emodel>  (1) 
-16.663683071296603

>  <r_i_glide_emodel_strain>  (1) 
0

>  <r_i_glide_energy>  (1) 
-14.306826378944823

>  <r_i_glide_erotb>  (1) 
1.8283304104302178

>  <r_i_glide_esite>  (1) 
0

>  <r_i_glide_evdw>  (1) 
-9.6242710115597347

>  <r_i_glide_gscore>  (1) 
-2.3799359072693056

>  <r_i_glide_gscore_strain>  (1) 
0

>  <r_i_glide_hbond>  (1) 
-0.32000000000000001

>  <r_i_glide_ligand_efficiency>  (1) 
-0.4759871814538611

>  <r_i_glide_ligand_efficiency_ln>  (1) 
-0.91204925625123845

>  <r_i_glide_ligand_efficiency_sa>  (1) 
-0.81392663121253894

>  <r_i_glide_lipo>  (1) 
-0.45466946201377367

>  <r_i_glide_metal>  (1) 
-0

>  <r_i_glide_rewards>  (1) 
-2.25

>  <r_lp_Energy>  (1) 
3.749654

>  <r_lp_tautomer_probability>  (1) 
1

>  <s_epik_cmdline>  (1) 
J2VwaWtfcHl0aG9uJywgJy1waHQnLCAnMS4wJywgJy1waCcsICc3LjQnLCAnLXRuJywgJzgnLCAnLW1hJywgJzUwMCcsICctaW1hZScsICc8aW5maWxlLm1hZT4nLCAnLW9tYWUnLCAnPG91dGZpbGUubWFlPic=

>  <s_epik_input>  (1) 
W0NIM11PW0NIMl1bQ0gyXVtPSF0=

>  <s_glide_docking_method>  (1) 
confgen

>  <s_i_glide_gridfile>  (1) 
gpcr_drd2_6luq_protein_autoprepared_prepared

>  <s_lp_Force_Field>  (1) 
S-OPLS

>  <s_lp_Variant>  (1) 
Pocket2Mol_48-1

>  <s_m_source_file>  (1) 
generated_generic_title2_ligand_Pocket2Mol_2026-06-23_prepared.sdf

>  <GenAI_Model>  (1) 
Pocket2Mol

>  <Protein>  (1) 
generic_title2

$$$$
Pocket2Mol_48
     RDKit          3D

  0  0  0  0  0  0  0  0  0  0999 V3000
M  V30 BEGIN CTAB
M  V30 COUNTS 13 12 0 0 1
M  V30 BEGIN ATOM
M  V30 1 C 11.035413 6.387902 -4.722144 0
M  V30 2 O 11.080962 7.698721 -5.267423 0
M  V30 3 C 10.903048 7.729481 -6.679632 0
M  V30 4 C 9.436699 7.532376 -7.108811 0
M  V30 5 O 9.375020 7.550571 -8.519071 0
M  V30 6 H 11.289965 6.418479 -3.661460 0
M  V30 7 H 10.027840 5.990641 -4.809957 0
M  V30 8 H 11.753753 5.740277 -5.224255 0
M  V30 9 H 11.547903 6.986521 -7.156891 0
M  V30 10 H 11.248669 8.703914 -7.032585 0
M  V30 11 H 8.803047 8.323339 -6.704650 0
M  V30 12 H 9.032599 6.581418 -6.760608 0
M  V30 13 H 8.447791 7.590227 -8.786505 0
M  V30 END ATOM
M  V30 BEGIN BOND
M  V30 1 1 2 1
M  V30 2 1 3 2
M  V30 3 1 4 3
M  V30 4 1 5 4
M  V30 5 1 6 1
M  V30 6 1 7 1
M  V30 7 1 8 1
M  V30 8 1 9 3
M  V30 9 1 10 3
M  V30 10 1 11 4
M  V30 11 1 12 4
M  V30 12 1 13 5
M  V30 END BOND
M  V30 END CTAB
M  END
>  <i_epik_Tot_Q>  (1) 
0

>  <i_epik_Tot_abs_Q>  (1) 
0

>  <i_i_glide_confnum>  (1) 
1

>  <i_i_glide_lignum>  (1) 
54

>  <i_i_glide_posenum>  (1) 
47

>  <i_i_glide_rotatable_bonds>  (1) 
3

>  <i_lp_mmshare_version>  (1) 
72125

>  <i_m_source_file_index>  (1) 
49

>  <i_f3d_flags>  (1) 
0

>  <num_sample>  (1) 
50

>  <b_lp_Chiralities_Consistent>  (1) 
1

>  <r_epik_Charging_Adjusted_Penalty>  (1) 
0

>  <r_epik_Ionization_Penalty>  (1) 
5.5888793446441707e-08

>  <r_epik_Ionization_Penalty_Charging>  (1) 
0

>  <r_epik_Ionization_Penalty_Neutral>  (1) 
5.5888793446441707e-08

>  <r_epik_State_Penalty>  (1) 
-0

>  <r_glide_ring_energy>  (1) 
0

>  <r_i_docking_score>  (1) 
-2.3347407401410321

>  <r_i_glide_ecoul>  (1) 
-5.5279763752971913

>  <r_i_glide_eff_state_penalty>  (1) 
-0

>  <r_i_glide_einternal>  (1) 
1.4205268541236085

>  <r_i_glide_emodel>  (1) 
-15.955449643499364

>  <r_i_glide_emodel_strain>  (1) 
0

>  <r_i_glide_energy>  (1) 
-14.164978740855608

>  <r_i_glide_erotb>  (1) 
1.8283304104302178

>  <r_i_glide_esite>  (1) 
0

>  <r_i_glide_evdw>  (1) 
-8.6370023655584163

>  <r_i_glide_gscore>  (1) 
-2.3347407401410321

>  <r_i_glide_gscore_strain>  (1) 
0

>  <r_i_glide_hbond>  (1) 
-0.16

>  <r_i_glide_ligand_efficiency>  (1) 
-0.46694814802820639

>  <r_i_glide_ligand_efficiency_ln>  (1) 
-0.89472937026624666

>  <r_i_glide_ligand_efficiency_sa>  (1) 
-0.79847010147346276

>  <r_i_glide_lipo>  (1) 
-0.49202457599875071

>  <r_i_glide_metal>  (1) 
-0

>  <r_i_glide_rewards>  (1) 
-2.25

>  <r_lp_Energy>  (1) 
3.749654

>  <r_lp_tautomer_probability>  (1) 
1

>  <s_epik_cmdline>  (1) 
J2VwaWtfcHl0aG9uJywgJy1waHQnLCAnMS4wJywgJy1waCcsICc3LjQnLCAnLXRuJywgJzgnLCAnLW1hJywgJzUwMCcsICctaW1hZScsICc8aW5maWxlLm1hZT4nLCAnLW9tYWUnLCAnPG91dGZpbGUubWFlPic=

>  <s_epik_input>  (1) 
W0NIM11PW0NIMl1bQ0gyXVtPSF0=

>  <s_glide_docking_method>  (1) 
confgen

>  <s_i_glide_gridfile>  (1) 
gpcr_drd2_6luq_protein_autoprepared_prepared

>  <s_lp_Force_Field>  (1) 
S-OPLS

>  <s_lp_Variant>  (1) 
Pocket2Mol_48-1

>  <s_m_source_file>  (1) 
generated_generic_title2_ligand_Pocket2Mol_2026-06-23_prepared.sdf

>  <GenAI_Model>  (1) 
Pocket2Mol

>  <Protein>  (1) 
generic_title2

$$$$
Pocket2Mol_2
     RDKit          3D

  0  0  0  0  0  0  0  0  0  0999 V3000
M  V30 BEGIN CTAB
M  V30 COUNTS 11 10 0 0 1
M  V30 BEGIN ATOM
M  V30 1 C 12.450909 9.190222 -3.341373 0
M  V30 2 O 11.775412 8.511458 -4.385017 0
M  V30 3 C 11.375412 9.192139 -5.469316 0
M  V30 4 C 10.623469 8.325078 -6.470308 0
M  V30 5 O 11.573099 10.390227 -5.666526 0
M  V30 6 H 12.703830 8.490638 -2.544685 0
M  V30 7 H 11.823581 9.975855 -2.917242 0
M  V30 8 H 13.375453 9.638749 -3.705499 0
M  V30 9 H 10.546787 7.297034 -6.115411 0
M  V30 10 H 9.614538 8.710127 -6.620298 0
M  V30 11 H 11.138550 8.321298 -7.430580 0
M  V30 END ATOM
M  V30 BEGIN BOND
M  V30 1 1 2 1
M  V30 2 1 3 2
M  V30 3 1 4 3
M  V30 4 2 5 3
M  V30 5 1 6 1
M  V30 6 1 7 1
M  V30 7 1 8 1
M  V30 8 1 9 4
M  V30 9 1 10 4
M  V30 10 1 11 4
M  V30 END BOND
M  V30 END CTAB
M  END
>  <i_epik_Tot_Q>  (1) 
0

>  <i_epik_Tot_abs_Q>  (1) 
0

>  <i_i_glide_confnum>  (1) 
2

>  <i_i_glide_lignum>  (1) 
3

>  <i_i_glide_posenum>  (1) 
113

>  <i_i_glide_rotatable_bonds>  (1) 
1

>  <i_lp_mmshare_version>  (1) 
72125

>  <i_m_source_file_index>  (1) 
3

>  <i_f3d_flags>  (1) 
0

>  <num_sample>  (1) 
50

>  <b_lp_Chiralities_Consistent>  (1) 
1

>  <r_epik_Charging_Adjusted_Penalty>  (1) 
0

>  <r_epik_Ionization_Penalty>  (1) 
0

>  <r_epik_Ionization_Penalty_Charging>  (1) 
0

>  <r_epik_Ionization_Penalty_Neutral>  (1) 
0

>  <r_epik_State_Penalty>  (1) 
-0

>  <r_glide_ring_energy>  (1) 
0

>  <r_i_docking_score>  (1) 
-2.1847109046676745

>  <r_i_glide_ecoul>  (1) 
-0.62764593913124767

>  <r_i_glide_eff_state_penalty>  (1) 
-0

>  <r_i_glide_einternal>  (1) 
0.015635690024266236

>  <r_i_glide_emodel>  (1) 
-16.696060080949955

>  <r_i_glide_emodel_strain>  (1) 
0

>  <r_i_glide_energy>  (1) 
-14.609354643844462

>  <r_i_glide_erotb>  (1) 
1.8998339649575009

>  <r_i_glide_esite>  (1) 
0

>  <r_i_glide_evdw>  (1) 
-13.981708704713213

>  <r_i_glide_gscore>  (1) 
-2.1847109046676745

>  <r_i_glide_gscore_strain>  (1) 
0

>  <r_i_glide_hbond>  (1) 
0

>  <r_i_glide_ligand_efficiency>  (1) 
-0.43694218093353487

>  <r_i_glide_ligand_efficiency_ln>  (1) 
-0.83723429258746462

>  <r_i_glide_ligand_efficiency_sa>  (1) 
-0.74716061948480195

>  <r_i_glide_lipo>  (1) 
-0.59131700777371921

>  <r_i_glide_metal>  (1) 
-0

>  <r_i_glide_rewards>  (1) 
-2.6999955357461078

>  <r_lp_Energy>  (1) 
-0.092308000000000001

>  <r_lp_tautomer_probability>  (1) 
1

>  <s_epik_Chemistry_Notes>  (1) 
This compound has an ester and may undergo hydrolysis at high or low pH.

>  <s_epik_cmdline>  (1) 
J2VwaWtfcHl0aG9uJywgJy1waHQnLCAnMS4wJywgJy1waCcsICc3LjQnLCAnLXRuJywgJzgnLCAnLW1hJywgJzUwMCcsICctaW1hZScsICc8aW5maWxlLm1hZT4nLCAnLW9tYWUnLCAnPG91dGZpbGUubWFlPic=

>  <s_epik_input>  (1) 
W0NIM11PQyg9TylbQ0gzXQ==

>  <s_glide_docking_method>  (1) 
confgen

>  <s_i_glide_gridfile>  (1) 
gpcr_drd2_6luq_protein_autoprepared_prepared

>  <s_lp_Force_Field>  (1) 
S-OPLS

>  <s_lp_Variant>  (1) 
Pocket2Mol_2-1

>  <s_m_source_file>  (1) 
generated_generic_title2_ligand_Pocket2Mol_2026-06-23_prepared.sdf

>  <GenAI_Model>  (1) 
Pocket2Mol

>  <Protein>  (1) 
generic_title2

$$$$
Pocket2Mol_2
     RDKit          3D

  0  0  0  0  0  0  0  0  0  0999 V3000
M  V30 BEGIN CTAB
M  V30 COUNTS 11 10 0 0 1
M  V30 BEGIN ATOM
M  V30 1 C 12.481923 8.618205 -2.569568 0
M  V30 2 O 12.509088 8.704298 -3.985049 0
M  V30 3 C 11.720615 9.590222 -4.608381 0
M  V30 4 C 11.828464 9.524913 -6.121544 0
M  V30 5 O 10.975408 10.390227 -4.048213 0
M  V30 6 H 13.254646 7.932425 -2.224175 0
M  V30 7 H 11.517058 8.250448 -2.219362 0
M  V30 8 H 12.662362 9.590061 -2.110568 0
M  V30 9 H 12.566557 8.790716 -6.441754 0
M  V30 10 H 10.861013 9.263573 -6.550378 0
M  V30 11 H 12.119708 10.503355 -6.500200 0
M  V30 END ATOM
M  V30 BEGIN BOND
M  V30 1 1 2 1
M  V30 2 1 3 2
M  V30 3 1 4 3
M  V30 4 2 5 3
M  V30 5 1 6 1
M  V30 6 1 7 1
M  V30 7 1 8 1
M  V30 8 1 9 4
M  V30 9 1 10 4
M  V30 10 1 11 4
M  V30 END BOND
M  V30 END CTAB
M  END
>  <i_epik_Tot_Q>  (1) 
0

>  <i_epik_Tot_abs_Q>  (1) 
0

>  <i_i_glide_confnum>  (1) 
1

>  <i_i_glide_lignum>  (1) 
3

>  <i_i_glide_posenum>  (1) 
146

>  <i_i_glide_rotatable_bonds>  (1) 
1

>  <i_lp_mmshare_version>  (1) 
72125

>  <i_m_source_file_index>  (1) 
3

>  <i_f3d_flags>  (1) 
0

>  <num_sample>  (1) 
50

>  <b_lp_Chiralities_Consistent>  (1) 
1

>  <r_epik_Charging_Adjusted_Penalty>  (1) 
0

>  <r_epik_Ionization_Penalty>  (1) 
0

>  <r_epik_Ionization_Penalty_Charging>  (1) 
0

>  <r_epik_Ionization_Penalty_Neutral>  (1) 
0

>  <r_epik_State_Penalty>  (1) 
-0

>  <r_glide_ring_energy>  (1) 
0

>  <r_i_docking_score>  (1) 
-2.1703770187653708

>  <r_i_glide_ecoul>  (1) 
-0.67740050726220613

>  <r_i_glide_eff_state_penalty>  (1) 
-0

>  <r_i_glide_einternal>  (1) 
0.0077503765249914425

>  <r_i_glide_emodel>  (1) 
-14.866370207516725

>  <r_i_glide_emodel_strain>  (1) 
0.060140289809587077

>  <r_i_glide_energy>  (1) 
-12.849604568478664

>  <r_i_glide_erotb>  (1) 
1.8998339649575009

>  <r_i_glide_esite>  (1) 
0

>  <r_i_glide_evdw>  (1) 
-12.172204061216458

>  <r_i_glide_gscore>  (1) 
-2.1703770187653708

>  <r_i_glide_gscore_strain>  (1) 
0

>  <r_i_glide_hbond>  (1) 
0

>  <r_i_glide_ligand_efficiency>  (1) 
-0.43407540375307418

>  <r_i_glide_ligand_efficiency_ln>  (1) 
-0.83174119929177737

>  <r_i_glide_ligand_efficiency_sa>  (1) 
-0.7422584994617325

>  <r_i_glide_lipo>  (1) 
-0.66000000000000003

>  <r_i_glide_metal>  (1) 
-0

>  <r_i_glide_rewards>  (1) 
-2.6999907045727181

>  <r_lp_Energy>  (1) 
-0.092308000000000001

>  <r_lp_tautomer_probability>  (1) 
1

>  <s_epik_Chemistry_Notes>  (1) 
This compound has an ester and may undergo hydrolysis at high or low pH.

>  <s_epik_cmdline>  (1) 
J2VwaWtfcHl0aG9uJywgJy1waHQnLCAnMS4wJywgJy1waCcsICc3LjQnLCAnLXRuJywgJzgnLCAnLW1hJywgJzUwMCcsICctaW1hZScsICc8aW5maWxlLm1hZT4nLCAnLW9tYWUnLCAnPG91dGZpbGUubWFlPic=

>  <s_epik_input>  (1) 
W0NIM11PQyg9TylbQ0gzXQ==

>  <s_glide_docking_method>  (1) 
confgen

>  <s_i_glide_gridfile>  (1) 
gpcr_drd2_6luq_protein_autoprepared_prepared

>  <s_lp_Force_Field>  (1) 
S-OPLS

>  <s_lp_Variant>  (1) 
Pocket2Mol_2-1

>  <s_m_source_file>  (1) 
generated_generic_title2_ligand_Pocket2Mol_2026-06-23_prepared.sdf

>  <GenAI_Model>  (1) 
Pocket2Mol

>  <Protein>  (1) 
generic_title2

$$$$
Pocket2Mol_48
     RDKit          3D

  0  0  0  0  0  0  0  0  0  0999 V3000
M  V30 BEGIN CTAB
M  V30 COUNTS 13 12 0 0 1
M  V30 BEGIN ATOM
M  V30 1 C 10.226366 7.224848 -6.332405 0
M  V30 2 O 10.975391 7.740817 -5.244180 0
M  V30 3 C 11.381964 6.728208 -4.340060 0
M  V30 4 C 12.182933 7.371743 -3.198082 0
M  V30 5 O 12.575410 6.390217 -2.264931 0
M  V30 6 H 9.934841 8.037801 -6.997665 0
M  V30 7 H 10.813232 6.511254 -6.912657 0
M  V30 8 H 9.317364 6.730067 -5.987648 0
M  V30 9 H 11.993256 5.991020 -4.862089 0
M  V30 10 H 10.508765 6.204903 -3.948310 0
M  V30 11 H 11.600522 8.133768 -2.680450 0
M  V30 12 H 13.074167 7.864302 -3.586764 0
M  V30 13 H 11.817066 5.877124 -2.021635 0
M  V30 END ATOM
M  V30 BEGIN BOND
M  V30 1 1 2 1
M  V30 2 1 3 2
M  V30 3 1 4 3
M  V30 4 1 5 4
M  V30 5 1 6 1
M  V30 6 1 7 1
M  V30 7 1 8 1
M  V30 8 1 9 3
M  V30 9 1 10 3
M  V30 10 1 11 4
M  V30 11 1 12 4
M  V30 12 1 13 5
M  V30 END BOND
M  V30 END CTAB
M  END
>  <i_epik_Tot_Q>  (1) 
0

>  <i_epik_Tot_abs_Q>  (1) 
0

>  <i_i_glide_confnum>  (1) 
1

>  <i_i_glide_lignum>  (1) 
54

>  <i_i_glide_posenum>  (1) 
108

>  <i_i_glide_rotatable_bonds>  (1) 
3

>  <i_lp_mmshare_version>  (1) 
72125

>  <i_m_source_file_index>  (1) 
49

>  <i_f3d_flags>  (1) 
0

>  <num_sample>  (1) 
50

>  <b_lp_Chiralities_Consistent>  (1) 
1

>  <r_epik_Charging_Adjusted_Penalty>  (1) 
0

>  <r_epik_Ionization_Penalty>  (1) 
5.5888793446441707e-08

>  <r_epik_Ionization_Penalty_Charging>  (1) 
0

>  <r_epik_Ionization_Penalty_Neutral>  (1) 
5.5888793446441707e-08

>  <r_epik_State_Penalty>  (1) 
-0

>  <r_glide_ring_energy>  (1) 
0

>  <r_i_docking_score>  (1) 
-2.1703223767151991

>  <r_i_glide_ecoul>  (1) 
-2.075999482831715

>  <r_i_glide_eff_state_penalty>  (1) 
-0

>  <r_i_glide_einternal>  (1) 
0.11947424006980265

>  <r_i_glide_emodel>  (1) 
-15.894037658848857

>  <r_i_glide_emodel_strain>  (1) 
0

>  <r_i_glide_energy>  (1) 
-13.629148502112651

>  <r_i_glide_erotb>  (1) 
1.8283304104302178

>  <r_i_glide_esite>  (1) 
0

>  <r_i_glide_evdw>  (1) 
-11.553149019280935

>  <r_i_glide_gscore>  (1) 
-2.1703223767151991

>  <r_i_glide_gscore_strain>  (1) 
0

>  <r_i_glide_hbond>  (1) 
0

>  <r_i_glide_ligand_efficiency>  (1) 
-0.43406447534303982

>  <r_i_glide_ligand_efficiency_ln>  (1) 
-0.8317202591307139

>  <r_i_glide_ligand_efficiency_sa>  (1) 
-0.74223981214343837

>  <r_i_glide_lipo>  (1) 
-0.85959541375661264

>  <r_i_glide_metal>  (1) 
-0

>  <r_i_glide_rewards>  (1) 
-2.25

>  <r_lp_Energy>  (1) 
3.749654

>  <r_lp_tautomer_probability>  (1) 
1

>  <s_epik_cmdline>  (1) 
J2VwaWtfcHl0aG9uJywgJy1waHQnLCAnMS4wJywgJy1waCcsICc3LjQnLCAnLXRuJywgJzgnLCAnLW1hJywgJzUwMCcsICctaW1hZScsICc8aW5maWxlLm1hZT4nLCAnLW9tYWUnLCAnPG91dGZpbGUubWFlPic=

>  <s_epik_input>  (1) 
W0NIM11PW0NIMl1bQ0gyXVtPSF0=

>  <s_glide_docking_method>  (1) 
confgen

>  <s_i_glide_gridfile>  (1) 
gpcr_drd2_6luq_protein_autoprepared_prepared

>  <s_lp_Force_Field>  (1) 
S-OPLS

>  <s_lp_Variant>  (1) 
Pocket2Mol_48-1

>  <s_m_source_file>  (1) 
generated_generic_title2_ligand_Pocket2Mol_2026-06-23_prepared.sdf

>  <GenAI_Model>  (1) 
Pocket2Mol

>  <Protein>  (1) 
generic_title2

$$$$
Pocket2Mol_48
     RDKit          3D

  0  0  0  0  0  0  0  0  0  0999 V3000
M  V30 BEGIN CTAB
M  V30 COUNTS 13 12 0 0 1
M  V30 BEGIN ATOM
M  V30 1 C 12.289561 8.881246 -1.914133 0
M  V30 2 O 11.775413 9.590198 -3.028428 0
M  V30 3 C 12.131604 8.994638 -4.263466 0
M  V30 4 C 11.454251 9.768575 -5.399306 0
M  V30 5 O 11.775405 9.190231 -6.646339 0
M  V30 6 H 12.042023 9.413653 -0.996032 0
M  V30 7 H 11.856789 7.882066 -1.852045 0
M  V30 8 H 13.375384 8.790143 -1.966383 0
M  V30 9 H 11.815993 7.949821 -4.281671 0
M  V30 10 H 13.215787 9.020495 -4.385025 0
M  V30 11 H 11.775409 10.809050 -5.397220 0
M  V30 12 H 10.373207 9.764285 -5.271432 0
M  V30 13 H 11.335906 8.355414 -6.717821 0
M  V30 END ATOM
M  V30 BEGIN BOND
M  V30 1 1 2 1
M  V30 2 1 3 2
M  V30 3 1 4 3
M  V30 4 1 5 4
M  V30 5 1 6 1
M  V30 6 1 7 1
M  V30 7 1 8 1
M  V30 8 1 9 3
M  V30 9 1 10 3
M  V30 10 1 11 4
M  V30 11 1 12 4
M  V30 12 1 13 5
M  V30 END BOND
M  V30 END CTAB
M  END
>  <i_epik_Tot_Q>  (1) 
0

>  <i_epik_Tot_abs_Q>  (1) 
0

>  <i_i_glide_confnum>  (1) 
1

>  <i_i_glide_lignum>  (1) 
54

>  <i_i_glide_posenum>  (1) 
323

>  <i_i_glide_rotatable_bonds>  (1) 
3

>  <i_lp_mmshare_version>  (1) 
72125

>  <i_m_source_file_index>  (1) 
49

>  <i_f3d_flags>  (1) 
0

>  <num_sample>  (1) 
50

>  <b_lp_Chiralities_Consistent>  (1) 
1

>  <r_epik_Charging_Adjusted_Penalty>  (1) 
0

>  <r_epik_Ionization_Penalty>  (1) 
5.5888793446441707e-08

>  <r_epik_Ionization_Penalty_Charging>  (1) 
0

>  <r_epik_Ionization_Penalty_Neutral>  (1) 
5.5888793446441707e-08

>  <r_epik_State_Penalty>  (1) 
-0

>  <r_glide_ring_energy>  (1) 
0

>  <r_i_docking_score>  (1) 
-2.1416457131238227

>  <r_i_glide_ecoul>  (1) 
-0.5775033096544534

>  <r_i_glide_eff_state_penalty>  (1) 
-0

>  <r_i_glide_einternal>  (1) 
0.11007645999943366

>  <r_i_glide_emodel>  (1) 
-15.683388403725633

>  <r_i_glide_emodel_strain>  (1) 
0

>  <r_i_glide_energy>  (1) 
-13.4445158517719

>  <r_i_glide_erotb>  (1) 
1.8283304104302178

>  <r_i_glide_esite>  (1) 
0

>  <r_i_glide_evdw>  (1) 
-12.867012542117447

>  <r_i_glide_gscore>  (1) 
-2.1416457131238227

>  <r_i_glide_gscore_strain>  (1) 
0

>  <r_i_glide_hbond>  (1) 
0

>  <r_i_glide_ligand_efficiency>  (1) 
-0.42832914262476451

>  <r_i_glide_ligand_efficiency_ln>  (1) 
-0.8207306649906384

>  <r_i_glide_ligand_efficiency_sa>  (1) 
-0.73243253114899975

>  <r_i_glide_lipo>  (1) 
-0.98999999999999999

>  <r_i_glide_metal>  (1) 
-0

>  <r_i_glide_rewards>  (1) 
-2.25

>  <r_lp_Energy>  (1) 
3.749654

>  <r_lp_tautomer_probability>  (1) 
1

>  <s_epik_cmdline>  (1) 
J2VwaWtfcHl0aG9uJywgJy1waHQnLCAnMS4wJywgJy1waCcsICc3LjQnLCAnLXRuJywgJzgnLCAnLW1hJywgJzUwMCcsICctaW1hZScsICc8aW5maWxlLm1hZT4nLCAnLW9tYWUnLCAnPG91dGZpbGUubWFlPic=

>  <s_epik_input>  (1) 
W0NIM11PW0NIMl1bQ0gyXVtPSF0=

>  <s_glide_docking_method>  (1) 
confgen

>  <s_i_glide_gridfile>  (1) 
gpcr_drd2_6luq_protein_autoprepared_prepared

>  <s_lp_Force_Field>  (1) 
S-OPLS

>  <s_lp_Variant>  (1) 
Pocket2Mol_48-1

>  <s_m_source_file>  (1) 
generated_generic_title2_ligand_Pocket2Mol_2026-06-23_prepared.sdf

>  <GenAI_Model>  (1) 
Pocket2Mol

>  <Protein>  (1) 
generic_title2

$$$$
Pocket2Mol_48
     RDKit          3D

  0  0  0  0  0  0  0  0  0  0999 V3000
M  V30 BEGIN CTAB
M  V30 COUNTS 13 12 0 0 1
M  V30 BEGIN ATOM
M  V30 1 C 10.936673 6.667198 -5.221903 0
M  V30 2 O 10.238896 7.627029 -6.000803 0
M  V30 3 C 9.280133 7.061269 -6.887127 0
M  V30 4 C 9.942076 6.537756 -8.172538 0
M  V30 5 O 8.975387 5.990352 -9.043402 0
M  V30 6 H 11.625390 7.177070 -4.547972 0
M  V30 7 H 10.249273 6.079621 -4.612213 0
M  V30 8 H 11.523223 5.989362 -5.840985 0
M  V30 9 H 8.575410 7.852201 -7.147843 0
M  V30 10 H 8.700027 6.280739 -6.391362 0
M  V30 11 H 10.675577 5.762945 -7.953300 0
M  V30 12 H 10.465134 7.346394 -8.684223 0
M  V30 13 H 8.283147 6.637642 -9.185067 0
M  V30 END ATOM
M  V30 BEGIN BOND
M  V30 1 1 2 1
M  V30 2 1 3 2
M  V30 3 1 4 3
M  V30 4 1 5 4
M  V30 5 1 6 1
M  V30 6 1 7 1
M  V30 7 1 8 1
M  V30 8 1 9 3
M  V30 9 1 10 3
M  V30 10 1 11 4
M  V30 11 1 12 4
M  V30 12 1 13 5
M  V30 END BOND
M  V30 END CTAB
M  END
>  <i_epik_Tot_Q>  (1) 
0

>  <i_epik_Tot_abs_Q>  (1) 
0

>  <i_i_glide_confnum>  (1) 
1

>  <i_i_glide_lignum>  (1) 
54

>  <i_i_glide_posenum>  (1) 
287

>  <i_i_glide_rotatable_bonds>  (1) 
3

>  <i_lp_mmshare_version>  (1) 
72125

>  <i_m_source_file_index>  (1) 
49

>  <i_f3d_flags>  (1) 
0

>  <num_sample>  (1) 
50

>  <b_lp_Chiralities_Consistent>  (1) 
1

>  <r_epik_Charging_Adjusted_Penalty>  (1) 
0

>  <r_epik_Ionization_Penalty>  (1) 
5.5888793446441707e-08

>  <r_epik_Ionization_Penalty_Charging>  (1) 
0

>  <r_epik_Ionization_Penalty_Neutral>  (1) 
5.5888793446441707e-08

>  <r_epik_State_Penalty>  (1) 
-0

>  <r_glide_ring_energy>  (1) 
0

>  <r_i_docking_score>  (1) 
-2.0039560268240786

>  <r_i_glide_ecoul>  (1) 
-3.819418145664891

>  <r_i_glide_eff_state_penalty>  (1) 
-0

>  <r_i_glide_einternal>  (1) 
0.99530624307852711

>  <r_i_glide_emodel>  (1) 
-15.855671073154683

>  <r_i_glide_emodel_strain>  (1) 
0

>  <r_i_glide_energy>  (1) 
-14.206892453756144

>  <r_i_glide_erotb>  (1) 
1.8283304104302178

>  <r_i_glide_esite>  (1) 
0

>  <r_i_glide_evdw>  (1) 
-10.387474308091253

>  <r_i_glide_gscore>  (1) 
-2.0039560268240786

>  <r_i_glide_gscore_strain>  (1) 
0

>  <r_i_glide_hbond>  (1) 
-0.16

>  <r_i_glide_ligand_efficiency>  (1) 
-0.40079120536481572

>  <r_i_glide_ligand_efficiency_ln>  (1) 
-0.76796463225859068

>  <r_i_glide_ligand_efficiency_sa>  (1) 
-0.68534332081339522

>  <r_i_glide_lipo>  (1) 
-0.33000000000000002

>  <r_i_glide_metal>  (1) 
-0

>  <r_i_glide_rewards>  (1) 
-2.25

>  <r_lp_Energy>  (1) 
3.749654

>  <r_lp_tautomer_probability>  (1) 
1

>  <s_epik_cmdline>  (1) 
J2VwaWtfcHl0aG9uJywgJy1waHQnLCAnMS4wJywgJy1waCcsICc3LjQnLCAnLXRuJywgJzgnLCAnLW1hJywgJzUwMCcsICctaW1hZScsICc8aW5maWxlLm1hZT4nLCAnLW9tYWUnLCAnPG91dGZpbGUubWFlPic=

>  <s_epik_input>  (1) 
W0NIM11PW0NIMl1bQ0gyXVtPSF0=

>  <s_glide_docking_method>  (1) 
confgen

>  <s_i_glide_gridfile>  (1) 
gpcr_drd2_6luq_protein_autoprepared_prepared

>  <s_lp_Force_Field>  (1) 
S-OPLS

>  <s_lp_Variant>  (1) 
Pocket2Mol_48-1

>  <s_m_source_file>  (1) 
generated_generic_title2_ligand_Pocket2Mol_2026-06-23_prepared.sdf

>  <GenAI_Model>  (1) 
Pocket2Mol

>  <Protein>  (1) 
generic_title2

$$$$
Pocket2Mol_2
     RDKit          3D

  0  0  0  0  0  0  0  0  0  0999 V3000
M  V30 BEGIN CTAB
M  V30 COUNTS 11 10 0 0 1
M  V30 BEGIN ATOM
M  V30 1 C 10.088191 7.398955 -8.746975 0
M  V30 2 O 10.486293 6.812670 -7.520284 0
M  V30 3 C 10.575410 7.577326 -6.423538 0
M  V30 4 C 10.975409 6.790228 -5.185025 0
M  V30 5 O 10.365892 8.790226 -6.384041 0
M  V30 6 H 10.047579 6.638742 -9.526928 0
M  V30 7 H 10.792883 8.171256 -9.057405 0
M  V30 8 H 9.097654 7.846260 -8.656445 0
M  V30 9 H 11.736258 6.049645 -5.432358 0
M  V30 10 H 11.375531 7.456693 -4.421245 0
M  V30 11 H 10.109595 6.270959 -4.774907 0
M  V30 END ATOM
M  V30 BEGIN BOND
M  V30 1 1 2 1
M  V30 2 1 3 2
M  V30 3 1 4 3
M  V30 4 2 5 3
M  V30 5 1 6 1
M  V30 6 1 7 1
M  V30 7 1 8 1
M  V30 8 1 9 4
M  V30 9 1 10 4
M  V30 10 1 11 4
M  V30 END BOND
M  V30 END CTAB
M  END
>  <i_epik_Tot_Q>  (1) 
0

>  <i_epik_Tot_abs_Q>  (1) 
0

>  <i_i_glide_confnum>  (1) 
1

>  <i_i_glide_lignum>  (1) 
3

>  <i_i_glide_posenum>  (1) 
385

>  <i_i_glide_rotatable_bonds>  (1) 
1

>  <i_lp_mmshare_version>  (1) 
72125

>  <i_m_source_file_index>  (1) 
3

>  <i_f3d_flags>  (1) 
0

>  <num_sample>  (1) 
50

>  <b_lp_Chiralities_Consistent>  (1) 
1

>  <r_epik_Charging_Adjusted_Penalty>  (1) 
0

>  <r_epik_Ionization_Penalty>  (1) 
0

>  <r_epik_Ionization_Penalty_Charging>  (1) 
0

>  <r_epik_Ionization_Penalty_Neutral>  (1) 
0

>  <r_epik_State_Penalty>  (1) 
-0

>  <r_glide_ring_energy>  (1) 
0

>  <r_i_docking_score>  (1) 
-1.7471477433762597

>  <r_i_glide_ecoul>  (1) 
-1.0975600687372959

>  <r_i_glide_eff_state_penalty>  (1) 
-0

>  <r_i_glide_einternal>  (1) 
0.040208891734727081

>  <r_i_glide_emodel>  (1) 
-14.93351753306829

>  <r_i_glide_emodel_strain>  (1) 
0.0042605034856477708

>  <r_i_glide_energy>  (1) 
-13.282859202232428

>  <r_i_glide_erotb>  (1) 
1.8998339649575009

>  <r_i_glide_esite>  (1) 
0

>  <r_i_glide_evdw>  (1) 
-12.185299133495132

>  <r_i_glide_gscore>  (1) 
-1.7471477433762597

>  <r_i_glide_gscore_strain>  (1) 
0

>  <r_i_glide_hbond>  (1) 
0

>  <r_i_glide_ligand_efficiency>  (1) 
-0.34942954867525194

>  <r_i_glide_ligand_efficiency_ln>  (1) 
-0.66954945931114684

>  <r_i_glide_ligand_efficiency_sa>  (1) 
-0.59751612329277493

>  <r_i_glide_lipo>  (1) 
-0.31943485716489811

>  <r_i_glide_metal>  (1) 
-0

>  <r_i_glide_rewards>  (1) 
-2.5536478841835115

>  <r_lp_Energy>  (1) 
-0.092308000000000001

>  <r_lp_tautomer_probability>  (1) 
1

>  <s_epik_Chemistry_Notes>  (1) 
This compound has an ester and may undergo hydrolysis at high or low pH.

>  <s_epik_cmdline>  (1) 
J2VwaWtfcHl0aG9uJywgJy1waHQnLCAnMS4wJywgJy1waCcsICc3LjQnLCAnLXRuJywgJzgnLCAnLW1hJywgJzUwMCcsICctaW1hZScsICc8aW5maWxlLm1hZT4nLCAnLW9tYWUnLCAnPG91dGZpbGUubWFlPic=

>  <s_epik_input>  (1) 
W0NIM11PQyg9TylbQ0gzXQ==

>  <s_glide_docking_method>  (1) 
confgen

>  <s_i_glide_gridfile>  (1) 
gpcr_drd2_6luq_protein_autoprepared_prepared

>  <s_lp_Force_Field>  (1) 
S-OPLS

>  <s_lp_Variant>  (1) 
Pocket2Mol_2-1

>  <s_m_source_file>  (1) 
generated_generic_title2_ligand_Pocket2Mol_2026-06-23_prepared.sdf

>  <GenAI_Model>  (1) 
Pocket2Mol

>  <Protein>  (1) 
generic_title2

$$$$
Pocket2Mol_2
     RDKit          3D

  0  0  0  0  0  0  0  0  0  0999 V3000
M  V30 BEGIN CTAB
M  V30 COUNTS 11 10 0 0 1
M  V30 BEGIN ATOM
M  V30 1 C 11.411908 9.753113 -5.608965 0
M  V30 2 O 10.443553 8.790226 -5.984977 0
M  V30 3 C 10.723130 7.907358 -6.955158 0
M  V30 4 C 9.587681 6.924924 -7.207635 0
M  V30 5 O 11.775690 7.864734 -7.593411 0
M  V30 6 H 11.024451 10.372485 -4.799753 0
M  V30 7 H 11.654553 10.405170 -6.448006 0
M  V30 8 H 12.327569 9.271494 -5.264197 0
M  V30 9 H 8.919740 6.873100 -6.347709 0
M  V30 10 H 9.001508 7.237972 -8.072266 0
M  V30 11 H 9.981620 5.926956 -7.398377 0
M  V30 END ATOM
M  V30 BEGIN BOND
M  V30 1 1 2 1
M  V30 2 1 3 2
M  V30 3 1 4 3
M  V30 4 2 5 3
M  V30 5 1 6 1
M  V30 6 1 7 1
M  V30 7 1 8 1
M  V30 8 1 9 4
M  V30 9 1 10 4
M  V30 10 1 11 4
M  V30 END BOND
M  V30 END CTAB
M  END
>  <i_epik_Tot_Q>  (1) 
0

>  <i_epik_Tot_abs_Q>  (1) 
0

>  <i_i_glide_confnum>  (1) 
2

>  <i_i_glide_lignum>  (1) 
3

>  <i_i_glide_posenum>  (1) 
350

>  <i_i_glide_rotatable_bonds>  (1) 
1

>  <i_lp_mmshare_version>  (1) 
72125

>  <i_m_source_file_index>  (1) 
3

>  <i_f3d_flags>  (1) 
0

>  <num_sample>  (1) 
50

>  <b_lp_Chiralities_Consistent>  (1) 
1

>  <r_epik_Charging_Adjusted_Penalty>  (1) 
0

>  <r_epik_Ionization_Penalty>  (1) 
0

>  <r_epik_Ionization_Penalty_Charging>  (1) 
0

>  <r_epik_Ionization_Penalty_Neutral>  (1) 
0

>  <r_epik_State_Penalty>  (1) 
-0

>  <r_glide_ring_energy>  (1) 
0

>  <r_i_docking_score>  (1) 
-1.6230319671251594

>  <r_i_glide_ecoul>  (1) 
-0.51829797542078249

>  <r_i_glide_eff_state_penalty>  (1) 
-0

>  <r_i_glide_einternal>  (1) 
0.0015640812736107401

>  <r_i_glide_emodel>  (1) 
-15.067451056284488

>  <r_i_glide_emodel_strain>  (1) 
0.020935830401022315

>  <r_i_glide_energy>  (1) 
-13.533137767546544

>  <r_i_glide_erotb>  (1) 
1.8998339649575009

>  <r_i_glide_esite>  (1) 
0

>  <r_i_glide_evdw>  (1) 
-13.014839792125761

>  <r_i_glide_gscore>  (1) 
-1.6230319671251594

>  <r_i_glide_gscore_strain>  (1) 
0

>  <r_i_glide_hbond>  (1) 
0

>  <r_i_glide_ligand_efficiency>  (1) 
-0.32460639342503189

>  <r_i_glide_ligand_efficiency_ln>  (1) 
-0.62198527866531406

>  <r_i_glide_ligand_efficiency_sa>  (1) 
-0.55506912489427729

>  <r_i_glide_lipo>  (1) 
-0.33000000000000002

>  <r_i_glide_metal>  (1) 
-0

>  <r_i_glide_rewards>  (1) 
-2.4643792461632548

>  <r_lp_Energy>  (1) 
-0.092308000000000001

>  <r_lp_tautomer_probability>  (1) 
1

>  <s_epik_Chemistry_Notes>  (1) 
This compound has an ester and may undergo hydrolysis at high or low pH.

>  <s_epik_cmdline>  (1) 
J2VwaWtfcHl0aG9uJywgJy1waHQnLCAnMS4wJywgJy1waCcsICc3LjQnLCAnLXRuJywgJzgnLCAnLW1hJywgJzUwMCcsICctaW1hZScsICc8aW5maWxlLm1hZT4nLCAnLW9tYWUnLCAnPG91dGZpbGUubWFlPic=

>  <s_epik_input>  (1) 
W0NIM11PQyg9TylbQ0gzXQ==

>  <s_glide_docking_method>  (1) 
confgen

>  <s_i_glide_gridfile>  (1) 
gpcr_drd2_6luq_protein_autoprepared_prepared

>  <s_lp_Force_Field>  (1) 
S-OPLS

>  <s_lp_Variant>  (1) 
Pocket2Mol_2-1

>  <s_m_source_file>  (1) 
generated_generic_title2_ligand_Pocket2Mol_2026-06-23_prepared.sdf

>  <GenAI_Model>  (1) 
Pocket2Mol

>  <Protein>  (1) 
generic_title2

$$$$
Pocket2Mol_2
     RDKit          3D

  0  0  0  0  0  0  0  0  0  0999 V3000
M  V30 BEGIN CTAB
M  V30 COUNTS 11 10 0 0 1
M  V30 BEGIN ATOM
M  V30 1 C 12.319149 8.390221 -8.741289 0
M  V30 2 O 11.268501 7.560842 -8.279666 0
M  V30 3 C 10.651338 7.848162 -7.122462 0
M  V30 4 C 9.538089 6.866938 -6.785025 0
M  V30 5 O 10.930296 8.794787 -6.385076 0
M  V30 6 H 12.728510 7.989838 -9.668625 0
M  V30 7 H 13.125787 8.445060 -8.009048 0
M  V30 8 H 11.956023 9.399605 -8.938611 0
M  V30 9 H 9.495273 6.058082 -7.514669 0
M  V30 10 H 9.699646 6.434376 -5.797725 0
M  V30 11 H 8.575413 7.378527 -6.785360 0
M  V30 END ATOM
M  V30 BEGIN BOND
M  V30 1 1 2 1
M  V30 2 1 3 2
M  V30 3 1 4 3
M  V30 4 2 5 3
M  V30 5 1 6 1
M  V30 6 1 7 1
M  V30 7 1 8 1
M  V30 8 1 9 4
M  V30 9 1 10 4
M  V30 10 1 11 4
M  V30 END BOND
M  V30 END CTAB
M  END
>  <i_epik_Tot_Q>  (1) 
0

>  <i_epik_Tot_abs_Q>  (1) 
0

>  <i_i_glide_confnum>  (1) 
2

>  <i_i_glide_lignum>  (1) 
3

>  <i_i_glide_posenum>  (1) 
152

>  <i_i_glide_rotatable_bonds>  (1) 
1

>  <i_lp_mmshare_version>  (1) 
72125

>  <i_m_source_file_index>  (1) 
3

>  <i_f3d_flags>  (1) 
0

>  <num_sample>  (1) 
50

>  <b_lp_Chiralities_Consistent>  (1) 
1

>  <r_epik_Charging_Adjusted_Penalty>  (1) 
0

>  <r_epik_Ionization_Penalty>  (1) 
0

>  <r_epik_Ionization_Penalty_Charging>  (1) 
0

>  <r_epik_Ionization_Penalty_Neutral>  (1) 
0

>  <r_epik_State_Penalty>  (1) 
-0

>  <r_glide_ring_energy>  (1) 
0

>  <r_i_docking_score>  (1) 
-1.564679251788589

>  <r_i_glide_ecoul>  (1) 
-0.92265284059979313

>  <r_i_glide_eff_state_penalty>  (1) 
-0

>  <r_i_glide_einternal>  (1) 
0.0033142972763031686

>  <r_i_glide_emodel>  (1) 
-14.83141087217504

>  <r_i_glide_emodel_strain>  (1) 
0.048768471860904938

>  <r_i_glide_energy>  (1) 
-13.381749174523366

>  <r_i_glide_erotb>  (1) 
1.8998339649575009

>  <r_i_glide_esite>  (1) 
0

>  <r_i_glide_evdw>  (1) 
-12.459096333923572

>  <r_i_glide_gscore>  (1) 
-1.564679251788589

>  <r_i_glide_gscore_strain>  (1) 
0

>  <r_i_glide_hbond>  (1) 
0

>  <r_i_glide_ligand_efficiency>  (1) 
-0.31293585035771782

>  <r_i_glide_ligand_efficiency_ln>  (1) 
-0.59962310056614687

>  <r_i_glide_ligand_efficiency_sa>  (1) 
-0.53511277696451565

>  <r_i_glide_lipo>  (1) 
-0.30447740152145908

>  <r_i_glide_metal>  (1) 
-0

>  <r_i_glide_rewards>  (1) 
-2.3986830724384829

>  <r_lp_Energy>  (1) 
-0.092308000000000001

>  <r_lp_tautomer_probability>  (1) 
1

>  <s_epik_Chemistry_Notes>  (1) 
This compound has an ester and may undergo hydrolysis at high or low pH.

>  <s_epik_cmdline>  (1) 
J2VwaWtfcHl0aG9uJywgJy1waHQnLCAnMS4wJywgJy1waCcsICc3LjQnLCAnLXRuJywgJzgnLCAnLW1hJywgJzUwMCcsICctaW1hZScsICc8aW5maWxlLm1hZT4nLCAnLW9tYWUnLCAnPG91dGZpbGUubWFlPic=

>  <s_epik_input>  (1) 
W0NIM11PQyg9TylbQ0gzXQ==

>  <s_glide_docking_method>  (1) 
confgen

>  <s_i_glide_gridfile>  (1) 
gpcr_drd2_6luq_protein_autoprepared_prepared

>  <s_lp_Force_Field>  (1) 
S-OPLS

>  <s_lp_Variant>  (1) 
Pocket2Mol_2-1

>  <s_m_source_file>  (1) 
generated_generic_title2_ligand_Pocket2Mol_2026-06-23_prepared.sdf

>  <GenAI_Model>  (1) 
Pocket2Mol

>  <Protein>  (1) 
generic_title2

$$$$
